100
TIME:    9.568, STEP:  9568
H   70.277252   44.590279   90.386246
H   36.230667   23.339573   81.398430
H   44.235996   62.264091   11.026154
H   83.082565   38.449699   15.707484
H    9.461748   39.674377    6.278723
H   79.647461   90.842369   26.296623
H   51.510235    7.414401   38.683239
H   67.860367   16.356007   29.691673
H   18.428169   66.367752   97.815392
H   13.421698   53.767307   82.346626
H   10.262970   51.230255   18.109064
H   90.656471    3.285079   11.868549
H   33.630142   82.850090   74.265610
H   81.331619   75.584633   85.369026
H   96.818916   15.371895   90.775658
H   16.814384   74.876633   38.813538
H   54.705391   14.820309   44.401138
H    5.673048   29.259880   67.850662
H   94.293152   79.743103   67.439606
H   34.736729    2.626677   67.766533
H   96.497543    3.692789   97.551361
H   79.673828   56.785645    4.474695
H   57.995613   16.813425   58.598984
H   30.052376   51.289276   96.470963
H   87.378403   27.370178    7.198295
H    2.491165   44.038864   90.490456
H   37.019516   44.747028   89.809006
H   25.221891    3.041601   83.039940
H   19.218288   17.175920    4.888136
H   67.872673   54.031540   44.016823
H   92.616127   80.036514   52.389389
H   69.886703   88.158356   13.506355
H   44.314926   68.442017   59.757957
H   82.372574   96.872673   68.666847
H   42.834755   35.238106    7.176959
H    4.367624   34.840176   89.346687
H   97.495026   54.134529   62.386311
H   68.526970   83.855629   97.629219
H   41.204243   72.946861   17.102135
H   61.993862   16.458351   90.824966
H   81.346695   84.483643   67.762413
H   93.874702   79.124084   68.422600
H   93.629364   20.884838   92.579704
H   68.401772   73.247841   16.242107
H   26.703119   54.401272   74.873611
H   54.623123   45.405773   22.032400
H   16.496120   45.181072   17.314428
H   56.771603   93.917297   60.590794
H   44.710999   40.028187   62.804825
H   26.615553   76.370720   14.537989
H   44.557850   46.044312   51.659195
H   70.133804   75.900223   45.956551
H    7.332067   77.487244   47.178574
H   55.115295   51.095940   54.025337
H   78.976295   97.098175   81.718231
H    5.512691    2.469116   66.909485
H    2.822557   13.466026   65.983864
H   13.603116   73.307472   67.105370
H   44.887554   43.052902   76.950493
H   27.629704   63.217693   91.473915
H   63.261204   33.615215   68.405052
H   59.330894   38.884476   62.435577
H   23.631790   54.380028   77.363983
H    0.056763   93.883942   67.371262
H   12.092490   96.662086   86.594551
H   13.572365   66.619987   11.919555
H   19.910023   79.151672   29.005817
H   19.438736   64.741585   23.608337
H   33.769997   62.290878   60.145893
H   24.346085   29.220301   81.550049
H   18.197464   44.391178   47.381599
H   85.365486   33.905663   57.375294
H   83.140656   45.037220   16.424740
H   19.581860   43.861111   34.654945
H   23.370657   42.403614   26.753668
H   51.853249   20.791420   52.123558
H   35.761665   97.664841   60.435806
H   81.494072   25.100578   42.855484
H   20.334448   25.414486   24.436457
H   30.301182   87.804573   96.629585
H   98.125130   28.267710   51.849754
H   59.269882    6.526928   86.544807
H   23.070219   67.129066   41.151340
H    8.412667   30.914089   89.528648
H   86.449600   50.383362   20.243689
H   31.083492   60.504669    6.214137
H    6.179984    7.680412   79.782295
H    9.908014   39.436195   96.375458
H   54.248295   61.441246   49.936897
H   20.398882   15.621902   66.247192
H   15.585299   90.074600   35.520775
H   86.234009   15.084650   15.836152
H   98.780884   14.601675   58.912712
H   70.260475   93.521713   74.585426
H   91.164780   92.686012   35.947090
H   84.199142   17.902426   73.249207
H    3.139834   16.766376   86.923386
H   19.808855   59.883572   86.798302
H   52.915520   78.119133   43.617733
H   33.516624   33.104939   76.024597
