200
TIME:    0.557, STEP:   557
H   19.211939   61.422939   20.760080
H   30.789719   37.506001    2.766205
H   11.493624   83.013191   60.962151
H   28.528124   80.678932   36.210224
H   11.844473   91.763565   49.100803
H   79.306030   44.211117   56.166592
H    7.951987   55.079208   55.787144
H    9.992419    2.574984   13.820234
H    0.302230   82.753838   39.986206
H   99.702240   70.458488   83.568718
H   23.242781    1.365966    2.979165
H   32.088638   50.484028   27.846592
H   18.954548   97.528435   48.299400
H   89.420609   54.544376   57.541164
H    4.317077   74.384872   42.198620
H   20.060440   12.905159   47.484646
H   99.119995   22.565176    0.041205
H   29.034781   98.406120   37.876755
H   75.572578   18.225443   47.150364
H   91.064774   75.351341   25.182232
H   61.889404   92.582619   11.317370
H   82.971794   60.931145   58.358757
H   85.512527   60.236610   41.529968
H   15.322642   90.949310   90.592072
H   17.024986   25.453264   34.098942
H   18.398684   76.404655   96.486786
H    5.034613   65.157463   61.827454
H    1.785343   83.206360    1.565390
H   24.420021   46.894356   36.482151
H   78.724541   29.256367   87.660339
H   12.947623   64.693062   16.582380
H   26.161514   70.936020    1.407753
H   19.463852   15.806666   77.051201
H   85.935020   63.923767   43.831123
H   32.775959   76.702316   31.807777
H   22.706371   42.694210   83.111511
H   95.362930   67.587013   88.334755
H   17.235014   52.955299    0.914494
H   41.338020   35.049301   51.477985
H   87.042671   38.384907   51.313568
H   80.598633   90.415398   12.046253
H   29.117723   36.459591   30.431467
H   70.994156   80.499771   62.099209
H   36.575058   78.630180   30.085743
H   39.608158   85.966805   55.803505
H   36.598835    5.588630   46.135475
H   85.947891   10.681563    3.129345
H   82.398331   65.545769   36.251602
H   99.339836   16.722454   61.394882
H   50.773338   19.232058   92.301414
H   70.667297   66.483795   15.305758
H    9.020307   41.154156   70.357109
H   60.726131   85.354462   12.072404
H   17.688669   88.873322   86.397507
H   63.780960   69.334953   80.521255
H    1.241940   64.540665   89.028503
H    4.525807   17.945045   46.254154
H   70.871994   65.948616   99.581917
H   21.492146   80.601151   14.793489
H   35.771553   94.209145   61.134163
H   49.392857    9.191650   32.974789
H   95.633568   17.175833   51.496140
H   80.180580   31.773350   74.190231
H   31.806646   65.604599   10.745205
H   76.444191   80.804855   30.892254
H   26.304611   28.876823   38.561325
H   74.334084   16.475389   92.384468
H   95.566231   92.170647   93.547607
H   27.798222   10.137048   57.967484
H   43.412193   47.155090   50.965664
H   58.326099   82.074913   81.760666
H   23.231283   15.489452   42.545837
H   87.554825   31.143459   88.880882
H   18.192802    1.996811   69.801247
H   83.004990    6.003071   52.707390
H   61.326309    7.885128   60.806011
H   94.087723   41.751354   67.661644
H   14.813972   11.742336   37.127739
H   13.940613   43.816460   27.917500
H   63.499390   88.899010   79.228119
H   56.822315   24.744427   96.427444
H   40.575356   62.889565   78.057396
H    9.762943   17.143524   81.004700
H   14.336716   72.225365    4.183280
H   27.619785    2.675984   48.798611
H   33.598087   74.682999   21.183895
H   50.062801    3.444667    2.498076
H   72.695305    6.745971   23.398737
H   75.388474   72.828804   78.312439
H   21.856373    0.255965   51.378002
H   27.954458   37.629349   79.344490
H   81.847321   91.316757    5.284701
H   62.318596   13.286924   86.701500
H   45.813026   83.044846   77.808914
H   33.157318   52.638168   81.142471
H   56.144356   34.796764   14.156998
H   83.605721    3.314761   11.981565
H   98.180298   33.364460   51.594952
H   29.834908   66.602516   54.004650
H   72.716232    3.078365   27.327799
H   24.009611   89.191101   83.866890
H    2.359987   81.452492   64.116013
H   29.750509   25.584915   34.932564
H   37.108131   68.524765    2.750897
H   24.918522   23.306835   35.365028
H   99.972794   11.252647   29.049412
H   80.674881   34.032921   54.783936
H   62.883377   46.445568    6.483735
H   80.852646   36.088215   14.461155
H   14.549903   23.640547    7.088744
H   51.365276   93.312088    1.018883
H   98.722618   71.316833   94.122009
H   51.588284   83.953224   87.040176
H   62.150352   12.563219   66.779388
H   53.271660   95.168839   15.657745
H    1.101555   96.523979   93.235085
H   19.541546   12.906387   87.875595
H   39.162800   42.599548   27.641991
H   30.901119   69.615135   67.872498
H   79.148285   53.001705   61.168102
H   43.863106   23.865963   77.132294
H    4.611206   19.970531   57.512760
H   39.878914    8.452828   33.433044
H   99.406837   55.911533    3.983296
H   67.430946    1.103295   82.328857
H   59.336071   71.025467   19.410721
H   87.507103   50.670059   58.812225
H   68.494781   90.056206   37.679874
H   96.368790   41.009010   77.666153
H   83.110039   22.646841   71.902161
H   61.405334   73.867035   15.525700
H   69.532440   89.195450   16.802624
H   91.402626   98.017624   99.733208
H   85.376747   21.130569   53.608753
H   20.086178   95.638260   41.850151
H   53.915031    1.220010   79.011444
H   69.417534   87.372307   71.119492
H   93.922249   54.323166   78.189621
H   54.599075   48.766777   71.475113
H   43.619659   93.886574   86.649246
H   66.311424   53.746487   25.149918
H   42.644958   50.642574   53.636673
H   44.815075   62.595665   88.691978
H   43.187462   15.052863   83.377449
H   55.202427   59.253777   59.434315
H   57.555065   67.437195   14.663921
H   52.228661   95.389565   45.012115
H   33.996567   61.618744   67.006248
H   73.659760   51.557011   94.793129
H   19.566957   92.135696   78.134102
H   65.046669   66.693573   48.951073
H   47.131542   98.338318   38.218266
H   90.902107   19.985432   92.336647
H   18.289671    8.419017   68.118942
H   26.182785   62.250740   66.488205
H   72.912552   44.314922   63.813633
H   62.629467   70.390388   84.509323
H   50.552975   31.573753   17.150797
H   97.873291    0.539894   90.848694
H   60.125664   44.009583   90.406219
H   57.069790   71.530777   74.987350
H   28.720413   21.413523   32.797749
H   78.864632   20.748831   37.100243
H   22.910652   29.492165   57.636311
H   55.918945   32.844723   12.939294
H   17.375315   54.352867   60.568954
H   69.441238   92.439705   55.582230
H   23.909134   45.355396   61.121082
H   98.380341   27.139317   36.108402
H   40.939320    8.067497   86.833618
H   73.309021    9.403684   35.949471
H   35.211891   53.672703   58.431568
H   43.797840   63.833130   81.504532
H   67.322449   66.955597   81.593987
H   56.704254   92.651886   84.326096
H   10.694537   49.373161   23.590874
H   32.161209   62.823772    0.168687
H    4.539503    9.503174   68.933640
H   67.494698   14.010258   65.427254
H   71.221069   57.855537   90.856842
H   75.630302   96.549194   34.348866
H   25.621624   30.493008   81.188774
H   51.039642   89.833778   12.347008
H   58.384296   25.806976   88.852379
H   89.622353   74.585106   77.090836
H    5.896706   38.898651   85.540749
H   42.390106   99.094666    6.289108
H   75.191643   80.652168   36.618725
H   97.438118   62.587029   70.166351
H   55.378109   56.548908   69.708084
H   62.963821   20.536442   77.037727
H   45.054218   93.543961   20.586672
H   11.141768   25.065569   65.067993
H   29.565426   76.182396   39.701797
H   74.016113   40.096123   20.779345
H   76.102066   11.161302   25.223318
H   11.568414   94.203194   14.166303
H   19.696751   91.105942   38.026661
H    7.686043   12.498886   63.839714
H    4.701471   24.252874   93.344673
