100
TIME:    4.248, STEP:  4248
H   30.046894   32.458008   95.256851
H   83.156380   35.056808   45.956192
H   52.773964   79.522362   73.479500
H   82.189621   57.632866    7.315008
H   57.122101   13.253436   50.523453
H   62.151684   96.605919   99.439293
H   30.333080   48.183681   22.652140
H   86.001869   56.107052   18.156216
H   49.203987   77.865463   32.690151
H   58.753654   77.378349   74.038147
H    5.116409   37.169880   30.560951
H   93.705101   36.620781   90.552162
H   72.993484    4.704704    2.919461
H   44.744591   91.982338   80.514969
H   32.173714   90.579163   46.575459
H   30.722260   40.183525   80.419861
H   82.508186   62.941456   60.100548
H   91.913292   88.120293   52.270550
H   11.432396   56.563927   87.163635
H   78.068474   15.605127    5.556196
H   12.194366   33.315639   41.945107
H   69.640244   49.723267   57.521835
H   29.027107   60.073509   10.809333
H   24.356300   87.629761   91.579239
H   77.651520   49.272552   67.912270
H   27.181540    1.071911   90.955940
H   95.768822   65.894852   84.255775
H   74.107330   54.721985    7.186476
H    3.539192   34.503445   56.366737
H   63.880356   85.701469   21.092266
H   83.241188    2.982428   73.290703
H   33.978405   35.143738    6.005400
H   69.581764   57.678276   80.490341
H   57.589783   84.418945   92.790367
H   75.177200   37.803978   83.401840
H   41.908741   18.150806    6.073165
H   87.237411   48.965317   43.191029
H   88.414650   81.211678   22.211437
H   65.765259   88.861687   32.649101
H   63.078346   14.499469   72.258972
H   44.930679    1.944818   42.426739
H   49.835098    2.509491    2.376480
H   47.831348   88.973938    8.311819
H    8.095819   83.962494   96.081909
H   88.173027   64.284607   19.623613
H   23.282650   43.940907    0.416393
H   74.922165   55.858727   66.244225
H   56.466282   39.122986   31.420067
H   89.204208   80.630096   75.020905
H   14.970851   95.390938   86.553810
H   43.220524   59.526588   98.207047
H   11.577662   69.557434   95.187805
H   96.988564   46.640076   56.153149
H   78.317589   37.895790   19.268764
H    2.562345   30.872759   36.478092
H   98.881424    8.065298   48.014862
H   65.555099   66.972435   60.007607
H    9.740876   75.716362    4.135744
H   25.307570   18.257153   85.362099
H   78.694153   54.304394   42.787361
H   27.668074   81.019920   83.188210
H   48.144798   88.402298    3.144362
H   62.458424   17.407074   42.172356
H   34.741783   64.903839   11.805164
H    0.931829   21.562920   91.166496
H   40.383675   31.092049   97.358719
H   46.743790   95.227661   72.155563
H   86.927238   60.485001   69.281563
H   68.623428   44.552139   93.804810
H   16.451220   61.806305   92.788055
H   87.138725    6.365631   11.189568
H   23.700413   10.542228   67.641594
H   30.014425    8.184017   52.831627
H   36.695461   80.558189   50.752037
H   66.982796   34.695309   23.425436
H   26.082529   79.830284   10.093510
H   52.646370   58.358921   66.176979
H   31.559093   72.955177   49.041946
H   65.217934   41.041012   65.082237
H   91.195160   77.599419   54.952202
H   94.000839   73.229172   33.881359
H   60.058624   71.970230   31.562845
H   86.567574   78.165039   34.501049
H   42.405502   75.669502   75.427261
H   45.487350   83.169991   35.956375
H   53.526371   65.092995   36.777328
H   50.869041   94.488708   26.104673
H   24.333803   65.189095   51.565529
H   43.842392   57.650200   93.447639
H   90.758163   34.501686   76.071838
H   97.868225    2.812116   23.171793
H   92.605408   14.972408   14.470461
H   57.758522   54.979294   47.508892
H   57.813946   70.906509   13.239855
H   83.144691   69.220451   13.701732
H   44.788986   27.981964   48.034294
H   25.415936   11.464519   92.882309
H   22.458960   52.406860   88.060555
H    6.348262   55.161755   89.222069
H    3.071611   69.620491   88.516769
