100
TIME:    4.367, STEP:  4367
H   21.999741   21.545074   95.147903
H   79.869789   41.505608   53.459969
H   54.819458   88.083839   72.083153
H   82.209595   52.730217    0.792074
H   56.056229   22.791811   47.296783
H   60.305927   96.476997   11.224451
H   24.096275   56.219486   31.958094
H   76.648705   66.401917    7.229847
H   46.278740   66.424133   25.199499
H   55.501564   79.087013   78.697479
H   94.047333   41.958134   19.098286
H   89.163795   42.585670   82.081474
H   65.399826   97.508415   91.094971
H   38.852333   91.615547   89.570343
H   33.620903   79.949493   40.854794
H   25.937183   29.775383   70.541931
H   72.938942   70.812805   70.933586
H   94.455406   82.333351   48.144154
H   13.285870   61.556458   93.433578
H   74.861778   13.077993   13.658243
H    5.132736   21.468479   38.715714
H   81.048889   49.881241   47.387878
H   27.438286   59.105690    7.404489
H   13.299919   89.056976   82.741760
H   73.395294   39.834953   68.791115
H   26.639071   97.554459   79.765190
H   85.507759   60.948063   86.616310
H   64.065979   60.276505   11.120172
H    6.126918   45.300167   50.741402
H   68.443451   82.756248   30.552109
H   87.924126   13.653180   63.875801
H   41.492168   31.856239   94.989006
H   77.963478   48.971535   91.210800
H   62.617722   73.513275   87.776955
H   72.219269   28.808525   90.648682
H   52.253330   27.471287    5.698771
H   98.651505   44.607407   52.567799
H   83.495659   79.034538   30.608585
H   60.742176   86.268730   21.117411
H   51.870346    3.358880   81.621216
H   36.797729    6.027721   45.230328
H   39.140060    7.850542    7.966992
H   48.856365   89.687546   16.907141
H    0.497077   85.956238    7.717232
H   77.850227   59.589813   29.807051
H   21.747395   46.210651    0.900147
H   75.851852   62.330223   67.386360
H   56.472637   40.348648   38.783119
H   92.683273   70.773956   70.274414
H   17.466663   97.201286   78.230202
H   43.211445   48.038048   99.461761
H   17.360518   58.515125   87.376251
H   99.456230   47.330078   49.241322
H   75.561211   35.953796   24.519592
H   93.087555   41.301785   37.490398
H   99.030319    7.940063   43.963821
H   73.099731   63.538765   71.325462
H    0.880003   64.478401    1.070399
H   34.692513   23.285545   76.226830
H   70.840836   63.451466   39.402718
H   35.174835   75.485374   73.909492
H   43.921257   87.294662   97.760086
H   70.537071    9.286569   34.012169
H   42.913773   65.552078    8.573956
H    5.655275   12.058590    2.248390
H   33.073280   25.176186    4.394786
H   37.196335   99.342255   77.900742
H   78.707130   67.290604   74.970451
H   74.553818   36.001556   86.341888
H   18.862143   67.791504   92.537476
H   83.360054   98.268814    9.761898
H   13.888355    6.592685   76.353783
H   22.255075    2.298115   49.780182
H   34.075268   73.028084   43.681328
H   72.720711   34.865086   32.446743
H   28.896105   87.456627    2.086460
H   63.451263   48.044292   68.281487
H   37.149929   65.174492   55.614220
H   70.924980   40.691471   66.409584
H   85.359192   71.118843   44.700218
H   96.328690   74.460281   40.993832
H   68.987297   72.747391   21.611830
H   94.095863   80.151520   45.835247
H   50.592018   85.852486   64.557907
H   39.693146   75.727043   24.420624
H   50.787243   69.463615   45.041016
H   58.816780   85.836441   31.779036
H   26.249014   55.661613   50.328064
H   46.311874   51.024361   92.474373
H   80.237442   29.605392   80.326248
H    2.738242    9.237682   25.684855
H    1.410323   23.921532   16.737936
H   65.386681   58.550056   56.711346
H   69.315689   78.124298   21.263403
H   81.087395   58.561264   16.436058
H   54.617889   23.283138   41.887825
H   15.970618   18.293575   86.038574
H   22.895658   53.420074   86.155785
H    0.679461   55.674717   79.255165
H   10.462959   66.566322   77.053650
