100
TIME:    1.994, STEP:  1994
H   82.476471   39.161301   97.320450
H   45.803535   12.855894    3.781151
H   14.029898   17.360348   99.927956
H   81.811295   50.497765   30.864845
H   77.310974   32.585407   11.639544
H   97.096199   99.047844   76.218712
H   48.464153   95.981300   46.386253
H   63.161827   61.107250   25.111320
H    4.611671   94.578323   74.572655
H   20.349230   45.014244   85.772606
H   14.778000   46.475330   47.676983
H   79.735535   23.639360   50.993690
H   16.424389   41.067711   26.941822
H   56.350273   98.929787    8.983631
H    4.753954   91.915375   54.923836
H   21.350628   37.326668   67.522232
H   63.752838   13.863411   54.902435
H   43.755432   97.732246   30.418083
H   76.320091   62.006241   68.412689
H   38.796066   63.466366   52.093422
H   45.949844   57.709171    3.124146
H   53.545597   46.731789   49.470047
H   59.121254   78.405144   75.299271
H   33.777336   60.596622   58.983459
H   58.266838   28.031792   51.274078
H   37.515965   68.191788    2.275027
H   90.133949   59.590816   39.535069
H   64.292923   49.512890   32.682789
H   54.528488   30.002962   62.914757
H   77.452400   41.488632   41.905514
H   94.540047    0.857238   51.625401
H   91.659668   97.422050   14.669472
H   10.811863   22.591549   77.432220
H   62.352531   90.984634   87.747543
H   31.207710    8.189050   46.148376
H   45.925426   41.123318   13.785073
H   71.048859   31.512499   65.584717
H   81.575035   22.458233   63.151134
H   61.079384   37.941978   51.012207
H   75.380348   25.511385   94.917740
H   98.974358   24.602591   89.322311
H   52.411835    1.348230   96.481674
H   28.416327   75.457367   45.501732
H   52.028603   46.190529   75.696213
H   83.690544   53.216152   26.742361
H   52.362194    0.949281   91.267128
H   57.134876   33.306053   44.661812
H   56.345905   15.913462   91.955376
H   23.317244   67.305321   64.934921
H   67.709007   61.099354   44.201099
H   43.392490   77.135551   74.441269
H    2.038229   78.711212   43.160099
H   50.242996   33.570618   87.061455
H   30.516582   74.674446   19.806017
H   82.018005   33.309399   17.326368
H   96.061172   10.436350   24.746338
H   22.663095   32.011177   45.633492
H   77.579681   88.578659   62.194901
H   47.538742   23.020166   58.403831
H   27.435474   81.053558    6.896081
H   85.483475   85.841621   58.926762
H   28.140614    9.384127    5.131097
H    9.484066   71.177376   96.761887
H   79.964294   52.641357   73.005531
H   11.466598    1.586036   81.258881
H   78.850746   43.145332   64.086189
H   27.586565   17.301100   63.332714
H   42.626640   31.576817   61.527332
H   56.284393    6.510193   35.172462
H   70.780090   48.436188   97.534332
H   58.714088   59.728653   38.232548
H    9.553115   85.347992    2.612539
H   76.978943   19.675488   10.618809
H   86.307487   23.194921   84.699211
H   58.308907   31.480925   52.556866
H   72.799919   35.369141   61.757420
H   47.997589   53.721001   26.313902
H   25.662075   20.337481   24.560787
H   57.131973   47.660984   39.924980
H    1.735758    0.355923   49.136269
H   49.903118   49.910503   99.165886
H   90.934891   57.249893   20.040545
H   43.963238   40.538757   19.818394
H   87.339241   82.790749   81.300018
H   55.238403   24.158012   54.456482
H    5.396528   82.298286   80.252602
H    0.329462   58.372879   18.625059
H   88.054626   45.650024   75.012642
H   97.062691   83.149712   11.886106
H   90.041946   27.236572   95.499245
H    5.625310   81.101303   75.571365
H   25.823275   45.473026   71.515099
H   13.223015   87.379379   73.176346
H   39.955723   34.183224   61.262527
H   22.116779   71.119934   61.906548
H   58.617813   16.990580   64.456238
H    4.328336   82.112160   22.512726
H   14.186427   33.215393   24.131500
H   13.723595   45.445644   78.022354
H   63.075485   27.485149    5.634826
