100
TIME:    1.997, STEP:  1997
H   82.273590   38.886185   97.317703
H   45.720085   13.018549    3.970386
H   14.081465   17.576172   99.892754
H   81.811798   50.374168   30.700405
H   77.284103   32.825871   11.558205
H   97.049690   99.044594   76.515800
H   48.306934   96.183861   46.620857
H   62.926033   61.366779   24.835861
H    4.537926   94.289886   74.383827
H   20.267256   45.057320   85.890068
H   14.498947   46.596043   47.388020
H   79.621048   23.789736   50.780144
H   16.233559   40.886208   26.643646
H   56.201729   98.920540    9.211941
H    4.790447   91.647400   54.779617
H   21.229996   37.064278   67.273209
H   63.511642   14.061806   55.175560
H   43.819542   97.586357   30.314068
H   76.366829   62.132103   68.570755
H   38.715248   63.402668   52.297676
H   45.771820   57.410503    3.042721
H   53.833256   46.735748   49.214592
H   59.081200   78.380745   75.213440
H   33.498604   60.632603   58.760643
H   58.159538   27.793869   51.296211
H   37.502209   68.102386    1.993839
H   89.875267   59.466099   39.594601
H   64.039780   49.652920   32.781940
H   54.593719   30.275137   62.772942
H   77.567436   41.414383   42.144009
H   94.658058    1.126276   51.388027
H   91.849091   97.339149   14.391747
H   11.023184   22.372063   77.702484
H   62.479286   90.709702   87.621155
H   31.133129    7.962268   46.331047
H   46.186260   41.358997   13.774762
H   71.336609   31.402624   65.821106
H   81.451027   22.403324   63.362827
H   60.944504   37.877937   50.724663
H   75.097771   25.230536   95.153763
H   98.769325   24.705530   89.392990
H   52.142212    1.482878   96.622620
H   28.442167   75.475357   45.718414
H   51.837029   46.240814   75.989548
H   83.430305   53.097797   26.999086
H   52.323490    1.006501   91.279305
H   57.166553   33.467896   44.687447
H   56.346066   15.944349   92.140999
H   23.404928   67.056847   64.815262
H   67.771904   61.145016   43.991283
H   43.392262   76.845924   74.472900
H    2.184015   78.432846   42.963146
H   50.305229   33.588013   86.887230
H   30.447117   74.625511   19.938391
H   81.779190   33.572407   17.351820
H   96.064926   10.433197   24.644211
H   22.853273   31.924614   45.918816
H   77.356293   88.295349   62.117630
H   47.775337   23.146933   58.173508
H   27.237514   81.284134    6.810760
H   85.672714   85.702095   58.692867
H   28.034149    9.356197    4.995350
H    9.687559   70.972801   96.556076
H   80.170288   52.657677   72.924095
H   11.585673    1.346428   81.538254
H   78.666451   42.996193   64.263573
H   27.345861   17.404818   63.477551
H   42.419411   31.748398   61.670750
H   56.433922    6.294632   34.984299
H   70.840881   48.587090   97.528015
H   58.618828   59.524513   38.196568
H    9.305757   85.248428    2.832187
H   76.783340   19.527103   10.541882
H   86.241478   23.005075   84.520912
H   58.453537   31.485193   52.784283
H   72.870827   35.561424   61.555569
H   48.269981   53.460968   26.366968
H   25.803020   20.141317   24.726475
H   57.275780   47.652195   39.958443
H    1.588630    0.192535   48.877815
H   49.961826   49.941540   99.345192
H   91.159973   57.269485   19.789679
H   44.153049   40.588837   20.104130
H   87.545601   83.047462   81.026001
H   55.092331   23.970352   54.165665
H    5.327477   82.408470   80.460930
H    0.529827   58.154755   18.768110
H   88.102921   45.409836   74.981422
H   97.124947   82.982674   11.861565
H   89.776718   27.113136   95.606499
H    5.748085   81.263306   75.634720
H   26.045256   45.698635   71.572273
H   13.415493   87.469284   73.408432
H   40.245693   34.365208   61.464790
H   22.064903   70.851227   61.975487
H   58.865601   16.872122   64.301285
H    4.090213   82.284325   22.340195
H   14.197442   33.240936   24.083492
H   13.580687   45.458576   77.771042
H   63.261795   27.408096    5.345877
