100
TIME:    8.732, STEP:  8732
H   26.812298   21.255293   91.151627
H   59.319656   78.038925   28.685127
H   29.865969    2.119481   20.839783
H   82.942245   72.891838   61.533539
H   16.952913   72.665558   28.944248
H   92.607910   91.748070   43.505318
H   95.326469   50.965286   73.306938
H   33.568314   44.030430    6.449876
H   38.978645   46.746521   50.439594
H   36.258156   41.763584   49.613838
H   88.025665   17.593132   98.639336
H   22.564606   61.380627   71.375832
H   86.938919   33.450798   57.344460
H   22.724829   78.161415   21.748882
H   86.664864   90.047554   30.978905
H   50.428802   47.996361    8.208344
H   21.931648   59.523426   68.296761
H   87.790604   69.939873   96.833084
H   81.268921   44.672390   23.397724
H   57.258060   20.380323   10.847712
H   46.107460   86.918976   20.243155
H   99.525688   55.675842   75.667831
H   69.157417   23.609369   82.517136
H    7.728827   41.288300   58.560795
H   17.278252   93.668442    1.027251
H    6.434624   68.684128   69.162811
H    9.108442   79.498856   73.225754
H   95.761292   64.019943   55.407707
H    1.039422   41.327084   44.405174
H   35.815971   74.722336   77.557709
H   59.716679    5.071532   18.531029
H   17.100941   11.257496   90.899117
H   85.427261   29.607250   84.444473
H   47.050247   73.487030    3.886823
H   63.640358   98.535103   56.315685
H   31.694918   69.359985   91.974495
H   17.311756   84.749763   96.512901
H    3.083510   99.150490   38.633850
H   76.492424   91.162926   98.117111
H   40.736610   94.722420   25.049799
H   38.480698   55.796440   48.066616
H   64.328491   75.845703   25.745354
H   86.434784   15.868446   32.194515
H   21.776844   59.213684   34.502979
H   99.219910   87.378288    3.331657
H   65.409447   29.460846   18.636023
H    9.959966   99.713326    9.286163
H   56.720577   85.306763    8.864023
H   20.276215    9.266647   96.150146
H    9.068567   63.640064   72.992058
H   42.902012   26.625526   45.476868
H   29.504637   53.474720    0.834390
H   89.994240   72.639832   95.731339
H   74.476501   64.738510   17.135265
H   45.540352   23.835333   74.612946
H    4.471455    3.348507   95.368896
H   49.821915   37.588448   86.473244
H   75.853210   52.257729   88.638084
H   78.951469    7.726382   41.130173
H   82.796700   98.957779   15.251732
H   10.521549   72.491577   33.580532
H   89.002159   46.665848    0.258446
H   66.877380   11.426744   34.691010
H   42.650829   89.329926   90.064804
H   78.912033   63.434788    8.741755
H   64.928352    8.179858   62.488346
H   86.983475   50.248821   88.642563
H   77.186722   16.929790   83.642700
H   92.103088   22.360497   12.576124
H    7.367355   87.230240   83.323181
H   44.748142    1.274033   57.408089
H   54.207603   61.663475   96.098434
H   37.648880   86.390373   37.861782
H   37.982891   96.772011   84.328163
H   83.100708   41.172626   63.367756
H   32.087288   67.213493    8.377080
H   59.834793   70.024414   45.606552
H   42.220814   79.761528   96.683289
H   80.243965   27.870083   15.105341
H   71.299950   33.346550   68.651634
H   81.758736   19.618906    1.882706
H   96.538864    1.099899   56.484093
H   70.193657   53.148106   61.535564
H   50.896217   59.375465   65.883049
H   27.155106    2.682462    1.284269
H   50.326443   29.793991   48.159851
H   50.345387   68.464622   39.918709
H   96.463615    6.330656    5.040597
H   36.899662    7.988852   56.774300
H   94.312424   50.019394   36.364967
H   81.372093   44.932583   17.865990
H   24.378473   52.209076   99.909508
H   45.191471   89.519035   94.263550
H   91.179489   42.933216   15.583754
H    5.618677   67.571152   16.738565
H   15.149032   50.914490   16.430031
H   69.497276   68.790337   35.003654
H   21.422533   18.520077    3.584970
H   92.740837   74.509087   13.640408
H   81.589157   54.554737   56.559605
