200
TIME:    0.643, STEP:   643
H   21.854494   61.137524   22.230627
H   31.556240   38.761501    6.257585
H    9.691158   86.777397   65.198112
H   31.427061   81.684120   33.961346
H   10.931389   93.943222   47.864330
H   76.508301   41.876942   53.621143
H    9.197974   55.018188   57.451740
H   11.919631    6.288348   10.767681
H    3.794594   81.464546   37.888237
H   96.674866   69.253838   80.176537
H   26.240301    3.203025    5.696846
H   32.444260   52.779491   31.944275
H   21.065311    0.382629   44.774681
H   85.355896   54.907215   61.685268
H    0.164996   75.046906   41.987019
H   17.553703    9.361740   45.629444
H    3.165436   26.592981   95.865608
H   26.992746    2.540530   36.345680
H   78.433952   15.111976   48.416363
H   91.338379   74.170311   21.848446
H   62.921494   96.875664    7.377404
H   81.057213   64.218346   55.044655
H   82.937225   59.611320   39.466446
H   17.144217   91.733383   90.322403
H   20.762947   28.912043   31.030231
H   18.327494   80.221352   93.646408
H    6.700071   66.883080   65.285248
H    3.759159   86.754044    1.791682
H   28.042175   44.280342   35.978573
H   74.838295   31.560196   84.685455
H   12.835343   68.286018   16.687525
H   24.597633   72.951645    3.525180
H   17.385895   17.657120   78.101662
H   83.088737   64.017593   45.334312
H   28.648781   73.148727   31.153454
H   19.897160   40.733372   84.097672
H   97.831284   65.730827   88.980385
H   12.981113   55.179901   97.047890
H   38.155144   31.969767   53.389614
H   86.217918   38.031254   47.954193
H   80.624222   86.397926   14.900820
H   33.398300   34.656223   27.881262
H   69.445694   78.524170   65.292587
H   36.383469   82.807091   33.161446
H   42.546627   88.590660   58.906990
H   35.388607    3.350489   47.070786
H   87.568527    6.468171    5.014769
H   80.304626   65.544456   33.159927
H    2.665781   13.458938   61.456886
H   47.695770   19.620157   88.663185
H   68.621490   65.395279   11.897583
H    5.732860   42.634380   72.206078
H   63.045872   82.895950   13.195613
H   16.408728   90.688171   87.671051
H   60.140762   67.422340   77.739929
H    0.139480   62.421780   91.844604
H    4.280374   18.270485   45.331638
H   71.811569   67.947838   98.029518
H   19.677460   82.262466   16.873463
H   33.782501   93.726234   59.544365
H   49.114330    7.513767   30.462046
H   97.179405   17.379560   52.155548
H   82.549858   33.554756   71.288834
H   33.890495   65.727295   12.665363
H   77.826653   82.086929   34.409046
H   22.930965   32.217979   40.107162
H   71.121681   14.661299   94.161263
H   95.084633   92.366173   95.250259
H   30.857254   11.299214   56.878967
H   42.917145   48.654015   50.961071
H   58.288372   83.562355   84.061050
H   20.814272   13.229010   41.943840
H   90.284317   32.630245   86.001137
H   20.994633    0.106475   72.305031
H   84.052170    7.395211   48.663673
H   63.500061    4.848937   60.244038
H   93.724228   44.952930   66.445183
H   11.628716   13.308350   34.186974
H   14.594444   47.647919   26.012760
H   62.203209   88.419380   75.149628
H   60.472355   23.290939   95.150620
H   44.356949   61.342743   75.398766
H    9.427416   18.086872   78.488449
H   11.532261   75.037529    6.986135
H   24.557308    3.585398   46.361423
H   36.020840   71.673996   19.393650
H   53.917225    3.623872    2.695243
H   71.980125    3.545136   26.642469
H   78.020859   73.038109   78.622131
H   21.425625    4.110961   50.431866
H   24.349527   38.371758   78.961967
H   81.248276   92.071304    7.161186
H   66.404167   12.317003   84.252174
H   41.956635   79.955139   80.170319
H   35.336319   51.474854   84.724274
H   52.582893   36.719547   10.113502
H   84.772316    0.340185   15.685325
H   95.816269   34.700665   52.409206
H   27.886208   65.741020   54.309422
H   74.211548    4.475713   27.348795
H   27.846647   91.568909   87.916512
H    5.557708   82.753593   63.641632
H   31.533209   22.441898   36.134262
H   41.240425   68.683548    6.166215
H   24.804520   22.176655   38.153244
H    3.377638    7.042110   25.022919
H   84.748779   35.100769   54.383698
H   62.376518   49.747532    3.158268
H   83.038208   35.002651   18.619694
H   17.312529   22.441473    7.509650
H   52.496769   92.564758    1.079391
H    2.175677   73.479431   95.101608
H   50.094608   84.951195   85.169556
H   61.859032   10.709166   64.561676
H   50.401756   98.749985   12.642263
H   97.591904   94.008385   97.114769
H   16.005672   14.117353   88.878159
H   38.726475   46.832558   25.922935
H   34.167049   72.843941   63.622131
H   81.417831   54.718136   64.376282
H   44.760689   24.437450   74.314224
H    0.900515   17.933254   60.042461
H   41.952278    4.825671   35.984398
H   98.139854   52.816906    0.217241
H   64.857613   98.974060   79.484543
H   62.486797   73.378342   17.750225
H   85.369438   51.071609   55.490906
H   66.613663   90.730705   38.406208
H   97.427124   37.896011   75.706299
H   87.278419   22.239222   73.367294
H   64.876907   70.796356   18.812244
H   66.231461   90.048416   18.830715
H   91.121803    2.201665    0.373055
H   81.159813   23.335487   54.667088
H   24.334606   94.083237   37.898293
H   51.624489    1.109637   77.744461
H   69.559914   87.591454   75.400726
H   94.655800   51.637962   76.830780
H   56.846970   49.969460   71.454773
H   43.666245   89.762154   84.259628
H   70.569038   51.217442   27.927963
H   38.685883   53.255604   55.641472
H   42.050480   64.178535   85.791237
H   39.246758   11.939782   84.802559
H   59.244831   56.401588   62.246479
H   60.706120   68.918732   10.545078
H   54.262657   95.012947   44.396339
H   31.648285   58.417496   66.512840
H   75.958832   47.966351   93.938194
H   22.308424   93.074615   74.915794
H   62.015575   68.154114   48.301834
H   50.751728   95.958542   35.523220
H   94.897270   16.769749   89.317802
H   20.562990   10.393060   65.993744
H   29.593010   64.522003   68.043884
H   75.465546   44.528164   66.459770
H   63.529675   72.969627   85.527634
H   51.775669   30.193916   19.165602
H   93.937180    0.215851   87.659256
H   59.161484   40.500610   93.706543
H   57.914555   68.036896   72.700745
H   24.682438   20.967848   32.052715
H   82.566505   16.999224   37.064484
H   26.067448   32.018585   53.957073
H   55.095505   35.762852   13.784305
H   18.857016   51.616486   60.098839
H   67.960358   91.048714   56.493919
H   23.984261   49.268215   64.677292
H   99.548904   26.859642   35.905331
H   44.863949    7.418505   85.865173
H   71.666077   10.426423   35.942253
H   32.240944   50.478344   58.695660
H   45.459484   60.137489   79.084732
H   66.263458   64.898636   83.589272
H   52.707123   92.004944   80.282379
H   13.349723   49.837700   23.673382
H   31.277733   65.510475    3.765924
H    5.301719    9.585190   70.033310
H   65.295357   12.010954   64.421410
H   67.130112   58.778053   92.070023
H   74.060188   99.631027   32.349316
H   27.356262   30.597988   84.328346
H   47.079582   89.742577   14.050972
H   60.257214   25.966087   92.016228
H   90.734489   70.855019   76.736526
H    7.697080   39.624329   85.971169
H   45.384674   97.621658    8.194668
H   71.060005   84.294991   39.628056
H   94.947456   62.970535   71.149231
H   56.941990   56.081089   70.794632
H   67.071922   17.691143   76.423592
H   44.349209   95.881088   19.491266
H   13.052002   27.111540   67.038345
H   28.063057   79.614601   41.434959
H   71.064850   36.254822   20.498030
H   76.312027   11.372329   24.045076
H   12.140065   96.548195   17.069014
H   17.197395   89.396729   35.601284
H    6.539213   12.739521   59.993492
H    3.804498   21.339174   92.149864
