100
TIME:    3.845, STEP:  3845
H   57.300446   69.415253   95.625809
H   94.313850   13.213804   20.541090
H   45.846786   50.528450   78.208305
H   82.121979   74.235954   29.405092
H   60.731735   80.951210   61.450745
H   68.400276   97.042519   59.530045
H   51.452946   20.969990   91.136940
H   17.676880   21.243641   55.159580
H   59.110497   16.612457   58.059055
H   69.767036   71.591866   58.257942
H   42.602493   20.954197   69.378838
H    9.086266   16.420359   19.237661
H   98.682556   29.079697   42.967125
H   64.699043   93.224495   49.847034
H   27.271244   26.576237   65.948494
H   46.925766   75.431267   13.872557
H   14.915235   36.287350   23.413870
H   83.304283    7.718240   66.244324
H    5.155681   39.656448   65.930130
H   88.928123   24.163404   78.118126
H   36.108963   73.435974   52.881622
H   31.004242   49.188278   91.841034
H   34.407738   63.351082   22.340446
H   61.799339   82.796417   21.509724
H   92.065460   81.231842   64.936012
H   29.026163   13.042031   28.779066
H   30.519838   82.645523   76.261696
H    8.112359   35.911301   93.865868
H   94.776215   97.940781   75.417244
H   48.427185   95.675621   89.055389
H   67.382164   66.843224    5.174782
H    8.532863   46.277031   43.313133
H   41.194164   87.164131   44.184921
H   40.562393   21.351326    9.767822
H   85.194397   68.267570   58.860657
H    6.869627   86.530487    7.414630
H   48.584190   63.723618   11.436196
H    5.072364   88.584679   93.773033
H   82.774200   97.642876   71.703255
H    1.037796   52.227768   40.550945
H   72.473358   88.115448   32.932232
H   86.054428   84.424057   83.442932
H   44.360073   86.557266   79.201622
H   33.829178   77.210571   56.677246
H   23.130732   80.186676   85.137512
H   28.481876   36.254292   98.780037
H   71.773727   33.942650   62.375031
H   56.444759   34.972214    6.484711
H   77.422165   14.007225   91.095154
H    6.518649   89.260094   14.740635
H   43.251270   98.433159   93.957886
H   91.993073    6.951634   21.644482
H   88.631676   44.303345   79.558388
H   87.652214   44.472458    1.486545
H   34.649094   95.553894   33.049862
H   98.377182    8.489599   61.733932
H   40.007679   78.600746   21.679068
H   39.749260   13.774685   14.516518
H   93.524315    1.228745   16.300003
H    5.289378   23.327337   54.249641
H    2.245779   99.762962   14.610008
H   62.448051   92.153366   21.379639
H   35.097149   44.907524   69.807274
H    7.068268   62.710350   22.747829
H   84.937416   53.750889   53.637363
H   65.140724   51.126442   73.530212
H   79.076767   81.293365   52.699200
H   14.765491   37.437454   50.015835
H   48.537476   73.509155   19.080265
H    8.286497   41.535164   93.636658
H   99.935402   33.786491   16.024448
H   56.928497   23.917252   38.134594
H   56.290466   28.116947   63.165512
H   45.568890    6.059762   74.697380
H   47.553638   34.120350   92.874672
H   16.554201   54.002068   37.209888
H   16.055677   93.287399   59.049946
H   12.625422   99.304893   26.784586
H   45.893593   42.224751   60.584770
H   10.959253   99.546242   89.671104
H   86.117447   69.059952    9.795802
H   29.819481   69.338333   65.260986
H   61.072254   71.437714   96.117249
H   14.680460   41.184273   12.236089
H   65.109741    8.376732   75.022827
H   62.802578   50.288803    8.791703
H   23.953588   23.790108    6.887794
H   17.847837   97.454430   55.756271
H   35.479355   80.088966   96.743660
H   26.388628   51.083252   61.664543
H   81.375824   81.049995   14.661172
H   62.787369   84.667534    6.790940
H   31.925350   42.886711   16.344278
H   18.861256   46.460869   86.066994
H   90.111839    5.317202    4.441667
H   11.502868   43.895943   68.849648
H   57.404236   88.337410   16.059526
H   20.980055   48.975555   94.511162
H   25.546318   53.424580   22.977623
H   78.038170   79.963600   27.338648
