100
TIME:    8.705, STEP:  8705
H   28.638123   23.731234   91.176346
H   60.065353   76.575958   26.982693
H   29.401865    0.177056   21.156704
H   82.937714   74.004204   63.013603
H   17.194853   70.501389   29.676247
H   93.026489   91.777321   40.831314
H   96.741646   49.142036   71.195503
H   35.690460   41.694668    8.928958
H   39.642357   49.342453   52.139248
H   36.995613   41.375904   48.556679
H   90.537140   16.506824    1.240170
H   23.595192   60.027248   73.297752
H   88.660614   35.084946   60.027527
H   24.061625   78.244637   19.694096
H   86.336922   92.459328   32.277283
H   51.514389   50.357872   10.449606
H   24.102821   57.737667   65.838844
H   87.212997   71.253700   97.769119
H   80.848282   43.539631   21.975338
H   57.985424   20.953707    9.009424
H   47.709679   89.606781   20.975977
H   96.937172   55.639999   77.967133
H   69.517906   23.828856   83.289612
H   10.237520   40.965302   60.566143
H   18.243847   95.809540    0.827946
H    6.561979   69.480087   71.703537
H   11.436686   80.621109   72.690170
H   98.039581   62.759678   54.515137
H    0.452304   38.877407   45.681511
H   34.780647   75.390579   75.411255
H   58.653957    2.650419   20.667183
H   15.396156   12.003450   93.398643
H   83.525528   31.582626   82.012100
H   45.909454   75.961426    5.024241
H   64.312309    0.579381   54.672886
H   29.347929   67.245255   92.059364
H   14.722108   85.738533   94.385399
H    4.199440   99.644463   36.728615
H   77.631981   91.751244    0.733615
H   43.279602   97.249962   22.925489
H   40.325989   54.870087   47.430508
H   66.603897   75.739822   24.366947
H   86.202423   15.706484   30.244373
H   23.500805   58.760292   31.863171
H    1.561971   88.443275    1.021103
H   65.757988   28.945965   18.526331
H    9.748874   98.245003    9.026869
H   56.718929   85.028671    7.193466
H   19.487053   11.502708   97.227081
H    8.501827   63.229107   74.879784
H   42.903866   29.232273   45.192184
H   28.192354   55.980221    2.606828
H   89.434349   72.483276   97.299362
H   75.101898   65.178925   15.943900
H   47.690102   21.469187   74.383469
H    4.437826    3.376908   96.288040
H   48.110313   38.367516   83.905327
H   77.863708   54.807518   89.333519
H   76.821907    6.585461   43.203087
H   84.578545   96.882599   16.019676
H    8.818342   73.747314   35.685581
H   89.960442   46.917160    1.480136
H   65.044449   13.269202   36.542480
H   40.796680   89.182846   90.797729
H   77.840454   65.591187    6.227326
H   66.587013    9.522061   60.891895
H   89.149704   49.315464   87.339035
H   79.051788   15.385560   82.351944
H   90.757538   24.300545   14.269547
H    6.818974   85.873978   83.380447
H   45.605694    3.111223   57.731911
H   56.430893   62.559959   94.119247
H   39.409302   87.726036   38.554127
H   38.577183   98.480934   85.932442
H   81.800064   41.132870   61.320591
H   31.448915   65.483147   10.193789
H   57.382645   72.361206   45.127617
H   40.952511   81.526894   95.191895
H   78.949089   27.949390   14.804024
H   72.624077   34.817345   70.977715
H   81.230156   19.339579    0.268912
H   94.512711    0.924624   58.742813
H   68.485970   52.696568   58.964146
H   49.038773   57.065041   68.349205
H   28.469757    4.371445    3.901571
H   50.947926   28.802235   46.284897
H   48.542118   70.427742   38.631248
H   96.029381    8.491169    5.320543
H   36.339359    9.492142   56.995125
H   96.699478   51.130318   35.399887
H   80.267143   43.474766   17.295799
H   22.380747   50.178391   99.394936
H   43.460712   88.709068   92.175598
H   88.569962   41.295155   13.763233
H    6.085536   69.989517   16.118216
H   12.918944   51.980713   17.824608
H   71.640434   67.240852   36.556435
H   21.474649   17.184105    4.127043
H   94.027061   74.392494   15.902012
H   79.911957   55.247494   59.160686
