100
TIME:    3.369, STEP:  3369
H   89.490875   13.066795   96.061600
H    7.554909   87.406647   90.515549
H   37.664810   16.283371   83.793694
H   82.042084   93.846550   55.497898
H   64.995224   42.797710   74.357422
H   75.779671   97.558205   12.389040
H   76.400154   88.828377   53.913124
H   55.089539   80.062973   98.862892
H   70.811485   62.377777   88.020409
H   82.775398   64.757210   39.616982
H   86.878860    1.801733   15.230692
H   27.255119   92.561401   53.119728
H   28.960663   57.878220   90.277885
H   88.268074   94.691658   13.621906
H   21.480671   69.094681   88.827522
H   66.064255   17.064178   53.385109
H   53.192238    4.804758   80.081711
H   73.135826   30.866325   82.746277
H   97.741524   19.686327   40.853710
H    1.754402   34.271534   45.709801
H   64.355484   20.822525   65.799698
H   85.369659   48.556381   32.376785
H   40.763023   67.222359   35.960205
H    6.024928   77.087555   56.863270
H    9.089837   18.980438   61.420631
H   31.210566   27.225023   73.394066
H   71.566986    2.430733   66.819557
H   48.275036   13.693222   78.133812
H   84.426178   54.753891   97.918587
H   30.174988    7.457059   51.214203
H   48.647434   24.160551   42.834389
H   78.477974   59.427025   87.378868
H    7.664770   21.990047    1.303080
H   20.449596   64.974007   29.819656
H   97.026123    4.249490   29.876923
H   65.477028   49.138172    9.057763
H    2.930346   81.155258   73.929375
H   24.745201   97.293236   60.181225
H    2.864588    8.013296   17.831095
H   45.871037   96.788361    3.099741
H    5.004942   71.780548   21.717878
H   28.834648   63.062874   61.079590
H   40.260006   83.702835   44.819736
H   64.225601   69.235596   10.137263
H   64.418724   98.969269   44.405575
H   34.622898   27.175312   96.848030
H   68.054977    8.054986   57.802856
H   56.419338   30.070280   77.032570
H   63.506035   53.428154   10.082517
H   96.536674   82.018700   48.031437
H   43.287586   44.388565   88.939026
H   68.859833   51.121666   52.894329
H   78.761009   41.543335    7.202564
H   98.677727   52.240433   80.481537
H   72.548386   53.835052   29.001982
H   97.781601    8.990759   77.938095
H    9.832595   92.335426   76.407341
H   75.193596   58.727219   26.778477
H   55.981697   81.116913   52.843929
H   36.699326   86.740372   67.788216
H   72.219704   21.898693   51.721279
H   79.342216   96.583908   42.918610
H    2.781246   77.388481    2.448033
H   74.383476   60.121025   35.672665
H   66.045876   91.767372    9.309224
H   94.382301   74.789894   45.385376
H   17.267342   64.834991   29.718306
H   47.645958   10.213592   27.260283
H   24.812286    7.711464   48.935581
H   98.642639   17.593172   94.638977
H   15.050991   66.173027   21.735126
H   96.178085   39.714676    3.283697
H   87.326050   51.660557   75.367912
H   56.049664   36.182281    2.980233
H   24.605024   33.441242   56.791172
H    5.300653   23.493570   69.237488
H   72.838997   34.543930   50.631916
H   90.262070   30.429502    0.495930
H   23.069036   43.622913   55.271751
H   34.303322   25.470356   30.678757
H   76.806046   64.135513   81.346252
H   94.103760   66.229691    5.063444
H   30.955465   63.491791   50.780460
H   81.931580    0.451274   55.709953
H   88.286560   38.151920   21.165535
H   73.755859   32.802689   75.736740
H   92.162605   58.399178   84.190170
H   10.186995   35.563950   60.706131
H   25.600250    6.592064    0.636938
H   68.474518   70.667191   44.650536
H   61.895966   55.346813    4.608926
H   27.564787   48.873032   97.720161
H    1.414117   28.603659   79.534386
H   72.855019   17.586990   53.972122
H   98.341026   47.955692   93.503685
H   72.187164   62.693062   93.435524
H   95.187317   61.020580   43.435524
H   19.233259   44.922699    2.129503
H   48.221977   51.372730   62.848869
H   48.471661   92.180275   73.193848
