100
TIME:    3.803, STEP:  3803
H   60.140778   73.266876   95.664261
H   95.482155   10.936636   17.891737
H   45.124847   47.506752   78.701134
H   82.114929   75.966301   31.707254
H   61.107925   77.584724   62.589569
H   69.051399   97.088020   55.370483
H   53.654011   18.133823   87.852486
H   20.977997   17.610233   59.016010
H   60.142937   20.650574   60.702961
H   70.914833   70.988808   56.613152
H   46.509232   19.264225   73.424644
H   10.689400   14.315168   22.227156
H    1.354232   31.620743   47.141426
H   66.778664   93.353951   46.650700
H   26.760311   30.327724   67.967232
H   48.614456   79.104729   17.359045
H   18.292641   33.509502   19.590445
H   82.407066    9.760764   67.700378
H    4.501554   37.894379   63.717251
H   90.059898   25.055334   75.258568
H   38.601303   77.617004   54.021408
H   26.977661   49.132523   95.417725
H   34.968498   63.692665   23.542236
H   65.701591   82.292694   24.629154
H   93.567657   84.562439   64.625832
H   29.218904   14.293408   32.715736
H   34.141644   84.391251   75.428566
H   11.656125   33.950882   92.477745
H   93.862976   94.130173   77.402657
H   46.816681   96.715111   85.716461
H   65.729362   63.076916    8.497688
H    5.880994   47.437325   47.201286
H   38.235592   90.237099   40.401230
H   38.787827   25.200386   11.537102
H   86.238373   71.442436   56.303268
H    3.217469   83.231293    7.559587
H   44.556007   65.261703    8.126828
H    6.808238   89.353081   90.809013
H   84.546844   98.558037   75.773415
H    4.993706   56.159821   37.246304
H   75.343811   86.674133   31.942732
H   89.829147   82.539261   81.469696
H   43.998302   86.305405   76.167747
H   36.511215   76.506897   52.570595
H   26.773912   81.843964   81.543518
H   29.023731   35.453205   98.609566
H   71.445602   31.658569   61.971603
H   56.442516   34.539627    3.886025
H   76.194260   17.485542   92.770386
H    5.637774   88.621147   17.678059
H   43.254475    2.488022   93.515045
H   89.951904   10.848930   24.401821
H   87.760735   44.059814   81.997536
H   88.625053   45.157867   99.633270
H   37.993149   91.872742   32.692577
H   98.324631    8.533819   63.163712
H   37.345188   79.812630   17.684530
H   42.876701   17.741138   15.598385
H   90.211662   99.454102   19.524376
H    8.060897   20.098959   55.444221
H   99.596352    1.716121   17.884563
H   63.938713   92.544296   23.280136
H   32.245602   47.773491   72.687340
H    4.184156   62.481880   23.888256
H   83.270515   57.105518   49.726139
H   67.720863   53.214394   71.046844
H   82.446457   79.841156   50.671490
H   17.666740   35.035477   48.007992
H   46.444077   76.527008   21.714558
H    7.435583   39.422539   93.725098
H    1.269127   36.644127   16.528332
H   60.391434   25.311142   35.059383
H   59.028900   30.194324   64.242424
H   46.493664    8.717636   77.192924
H   45.528812   34.060429   89.690834
H   15.561210   51.310097   40.035801
H   12.242346   96.927536   58.307178
H   10.652186    2.051157   24.464960
H   43.879662   42.348118   60.115974
H   13.019087    1.833642   93.289452
H   85.295853   68.625443    7.285598
H   26.668007   69.064041   68.772949
H   58.414890   70.736603   92.116943
H   11.790941   37.590279   16.072090
H   67.154755   11.003895   79.094269
H   63.769329   48.745911    5.875028
H   21.148504   26.843849    4.885037
H   17.171881    0.817044   56.193024
H   34.607773   82.427498   97.087166
H   30.101984   52.811356   60.163307
H   79.657013   78.781960   13.774209
H   59.679474   81.509331    5.990615
H   29.233219   41.626442   13.096354
H   14.801693   43.913094   83.234993
H   90.837944    9.079395    3.476598
H    8.033843   45.554512   71.018990
H   60.738037   85.927101   18.475122
H   20.825926   48.617950   95.183434
H   27.547112   53.243534   26.495674
H   75.429192   81.041542   31.384615
