100
TIME:    1.838, STEP:  1838
H   93.026276   53.467331   97.463272
H   50.142952    4.397778   93.940788
H   11.348410    6.137492    1.759289
H   81.785110   56.924767   39.416248
H   78.708252   20.081318   15.869165
H   99.514656   99.216850   60.769855
H   56.639538   85.448158   34.186852
H   75.423119   47.611736   39.435204
H    8.446449    9.577219   84.391685
H   24.611879   42.774315   79.664574
H   29.288742   40.198292   62.703075
H   85.688843   15.819849   62.098122
H   26.347561   50.505882   42.446564
H   64.074577   99.410622   97.111839
H    2.856308    5.849881   62.423195
H   27.623077   50.971817   80.471451
H   76.295013    3.546880   40.699951
H   40.421722    5.318634   35.826462
H   73.889732   55.461411   60.193821
H   42.998611   66.779648   41.472206
H   55.207108   73.239197    7.358231
H   38.587345   46.525887   62.753708
H   61.204079   79.673882   79.762466
H   48.271416   58.725651   70.569244
H   63.846428   40.403770   50.123169
H   38.231266   72.840652   16.896822
H    3.585599   66.075760   36.439396
H   77.456375   42.231335   27.526388
H   51.136459   15.849868   70.289146
H   71.470528   45.349594   29.503899
H   88.403450   86.867767   63.968815
H   81.809692    1.732485   29.111183
H   99.823196   34.004936   63.378510
H   55.761284    5.281054   94.319748
H   35.085457   19.981606   36.649506
H   32.362072   28.868128   14.321252
H   56.086479   37.225441   53.292484
H   88.023460   25.313488   52.143108
H   68.092453   41.272118   65.964355
H   90.074379   40.115887   82.644547
H    9.634964   19.249731   85.647018
H   66.432220   94.347359   89.152512
H   27.072607   74.521881   34.234245
H   61.990456   43.575691   60.443073
H   97.222954   59.370602   13.392645
H   54.374798   97.973824   90.633949
H   55.487659   24.890253   43.328804
H   56.337574   14.307306   82.302971
H   18.757643   80.225975   71.157211
H   64.438377   58.724934   55.111530
H   43.404392   92.196159   72.796432
H   94.456902   93.186249   53.401646
H   47.006882   32.666077   96.121147
H   34.128796   77.219063   12.922579
H   94.436401   19.633516   16.002882
H   95.865982   10.600298   30.056946
H   12.773746   36.512459   30.796637
H   89.195892    3.310878   66.212967
H   35.235794   16.428324   70.380035
H   37.729389   69.063629   11.332795
H   75.643021   93.096992   71.089958
H   33.676941   10.836451   12.189851
H   98.902542   81.815254    7.464217
H   69.252625   51.792755   77.240211
H    5.274592   14.045714   66.731476
H   88.434120   50.900581   54.862255
H   40.102768   11.908000   55.801220
H   53.402580   22.654591   54.069630
H   48.508911   17.719360   44.956978
H   67.618958   40.589294   97.862823
H   63.667641   70.343208   40.103519
H   22.415895   90.525299   91.191368
H   87.150269   27.391460   14.619022
H   89.739983   33.066978   93.970757
H   50.788124   31.258955   40.731182
H   69.112724   25.370787   72.254601
H   33.833191   67.242416   23.554457
H   18.332912   30.537966   15.945035
H   49.654037   48.118015   38.184929
H    9.386446    8.852087   62.575844
H   46.850292   48.296612   89.841972
H   79.230606   56.231094   33.085526
H   34.093029   37.934631    4.960338
H   76.608528   69.441628   95.548920
H   62.834167   33.916344   69.578979
H    8.987209   76.568733   69.419533
H   89.910576   69.715347   11.186207
H   85.543335   58.139832   76.636055
H   93.825386   91.835686   13.162283
H    3.834046   33.655243   89.922035
H   99.241035   72.677170   72.276932
H   14.280628   33.740536   68.542015
H    3.214144   82.704330   61.107864
H   24.877262   24.720518   50.744858
H   24.814335   85.092712   58.321709
H   45.732864   23.150385   72.513794
H   16.710712   73.159584   31.484344
H   13.613650   31.887146   26.627914
H   21.154610   44.773190   91.090591
H   53.387375   31.491909   20.660141
