100
TIME:    3.421, STEP:  3421
H   85.974274    8.298218   96.013992
H    6.108387   90.225800   93.795700
H   38.558640   20.024323   83.183525
H   82.050812   91.704216   52.647404
H   64.529465   46.965740   72.947449
H   74.973518   97.501869   17.538843
H   73.674629   92.339424   57.979591
H   51.002441   84.561874   94.088661
H   69.533226   57.378204   84.747398
H   81.354317   65.503853   41.653389
H   82.041946    3.894006   10.221796
H   25.270287   95.167908   49.418251
H   25.652939   54.732162   85.109306
H   85.693306   94.531380   17.579273
H   22.113255   64.449783   86.328133
H   63.973495   12.516006   49.068703
H   49.010719    8.244096   84.815475
H   74.246666   28.337578   80.943542
H   98.551643   21.867937   43.593121
H    0.353551   33.167439   49.250206
H   61.269730   15.645615   64.388138
H   90.354950   48.625412   27.948502
H   40.068748   66.799446   34.472473
H    1.193518   77.711212   53.001118
H    7.230073   14.856445   61.804665
H   30.971933   25.675600   68.519859
H   67.083160    0.269091   67.851051
H   43.887615   16.120407   79.852440
H   85.556854   59.471786   95.460457
H   32.168762    6.169972   55.348114
H   50.694157   28.823500   38.720314
H   81.761299   57.990471   82.564964
H   11.327665   18.185619    5.987652
H   22.646877   60.208504   27.629120
H   95.733582    0.318604   33.043213
H   69.998940   53.223286    8.878243
H    7.917768   79.250961   78.026787
H   22.596123   96.341881   63.850567
H    0.669564    6.880438   12.792048
H   40.973423   91.920502    7.191004
H    1.451197   73.565033   22.942976
H   24.161186   65.396591   63.522644
H   40.707912   84.014664   48.575565
H   60.904984   70.106812   15.221538
H   59.908283   96.917389   48.855282
H   33.952030   28.167133   97.059090
H   68.461227   10.883065   58.302338
H   56.422115   30.605665   80.250038
H   65.026169   49.121666    8.008122
H   97.626884   82.809776   44.394627
H   43.283619   39.368362   89.487305
H   71.386993   46.296257   49.480480
H   79.839317   41.844849    4.182468
H   97.473259   51.391830   82.776215
H   68.408127   58.392273   29.444136
H   97.846664    8.936010   76.167892
H   13.129111   90.834999   81.352959
H   71.321526   53.816513   25.438923
H   60.082680   83.313995   48.851650
H   33.268021   90.737015   66.309212
H   75.499855   19.480434   47.667110
H   77.496635   96.099899   40.565613
H    6.311543   73.840141   98.882225
H   77.954033   60.403893   34.260708
H   68.109657   87.614418   14.151891
H   91.187843   72.204811   48.460022
H   13.095146   66.632965   32.228985
H   44.053978   13.187667   29.746183
H   27.404114    3.975075   45.674076
H   99.696350   20.208605   94.529480
H   13.399708   62.635002   21.111271
H   91.890244   37.988907    7.090907
H   83.935608   49.088566   74.034904
H   54.904705   32.891418   99.890495
H   27.112150   33.515430   60.733067
H    6.530065   26.826288   65.738342
H   77.560066   30.036785   51.551533
H   92.705124   27.029341    3.367773
H   25.562475   43.470173   55.852165
H   31.753151   22.638309   26.198898
H   77.823257   64.673477   84.454224
H   98.005188   66.569290    0.715120
H   34.245533   64.359833   55.733219
H   85.509277    4.901084   50.960716
H   85.754639   34.899143   16.124702
H   72.559326   34.712936   79.347763
H   95.635567   54.618355   86.669724
H   11.023893   31.400681   60.165390
H   26.679550    3.696841    0.211506
H   63.877216   68.528030   46.509209
H   64.024017   58.154461    5.707070
H   31.412458   52.783585   98.711189
H    4.747312   30.163992   83.555626
H   77.880775   20.741180   57.478012
H   97.442039   43.297703   94.698631
H   76.482147   60.639595   90.749672
H   91.059753   64.004768   40.444984
H   19.424086   45.365448    1.297454
H   45.744804   51.596882   58.493187
H   51.701427   90.845680   68.184753
