100
TIME:    0.969, STEP:   969
H   51.792641   33.159004   98.258865
H   74.315727   57.284069   39.124416
H   96.413208   43.617428   11.962219
H   81.639252   92.726463   87.049187
H   86.491806   50.427147   39.431038
H   12.990299    0.159030   74.709435
H    2.185975   26.768950   66.229836
H   43.724808   72.432083   19.223259
H   29.808128   93.127899   39.092003
H   48.359306   30.297215   45.636124
H   10.121002    5.232412   46.410217
H   18.855549   72.261711   23.954298
H   81.623856    3.081417   28.818457
H    7.102642    2.089618   30.981472
H   92.287407   83.469604    4.192568
H   62.562881   26.980968   52.604965
H   46.160378   46.078506   61.580315
H   21.851250   47.578262   65.952927
H   60.353172   19.003351   14.414057
H   66.419441   85.215851   82.295174
H    6.774724   59.751228   30.944256
H   55.261890   45.378906   36.747013
H   72.806480   86.741402    4.625069
H   29.010956   48.303379   35.108391
H   94.927605    9.325512   43.712013
H   42.215862   98.737213   98.349091
H   78.521317    2.195966   19.194914
H   50.779053    1.668880   98.802475
H   32.241119   37.006931   11.367512
H   38.148434   66.857132   60.421230
H   54.219456    8.938425   32.733116
H   26.940283   25.740280    9.558861
H   38.612804   97.586098   85.092125
H   19.044655   84.919716   30.928083
H   56.685814   85.671089   83.733871
H   56.805847   60.604748   17.310141
H   72.738091   69.049171   84.818794
H   23.940804   41.218723   90.821434
H    7.156884   59.822701   49.253372
H   71.923759   21.468451   14.272600
H   69.019928   89.430595   65.173752
H   44.532982   55.348557   48.325321
H   19.587400   69.310745   71.464180
H   17.482161   29.010386   75.477180
H   72.601173   93.659775   39.028366
H   65.575752   81.420219   87.118233
H   46.311817   78.013458   35.903267
H   56.291164    5.360197   28.534132
H   93.356377   52.195900    5.819346
H   46.212818   45.498196   15.892227
H   43.470692   76.092720   63.633854
H   52.224159   73.823654   10.448044
H   28.980066   27.627319   46.592323
H   54.250675   91.393883   74.576065
H   63.618980   43.452740    8.628727
H   94.778671   11.513573   59.639755
H   57.680832   61.586906   48.147453
H   53.904724   85.377388   88.595657
H   66.698814   79.710892   37.092632
H   95.075363    2.267447   36.048912
H   20.825964   33.508286   38.844566
H   64.519440   18.926041   51.511887
H   39.959641   41.075371   67.080910
H    9.578325   47.065605    0.829787
H   70.785042   83.451927   85.802452
H   41.818031   94.101295    3.480596
H    9.823706   81.862854   13.845501
H   13.430463   72.955124   12.526404
H    5.195848   80.160172   99.457436
H   50.015091   96.880516   99.692688
H   91.261467   29.470705   50.525791
H   94.068924   19.366478   27.566858
H   43.811554   70.374367   36.902264
H    8.863114   88.059464   45.618050
H    8.891963   30.022470   74.854546
H   48.568180   69.677635   30.728600
H   54.934536   42.559929    8.180197
H   77.505707   87.360405   67.955750
H    7.998103   50.663914   28.493153
H   52.003983   56.181633   37.440887
H   29.844486   39.306408   37.902996
H   14.027576   50.555862    5.750101
H   79.107735   23.430273   22.192204
H   16.827726   95.080177   74.922615
H    5.146733   88.272293   53.818748
H   28.989750   44.648167    9.073593
H   31.872046   32.898735   69.748734
H   71.554153   27.713516   85.668694
H   75.791939   40.219337   20.272236
H   80.664474   69.411530   58.854122
H   63.678013   25.755392   53.925243
H   49.983143   68.384163   51.985229
H   47.456490   56.663780   93.879051
H   40.885605   72.010811   92.153450
H   39.839375   62.933533   38.352318
H   73.957001   57.466118   17.399071
H   85.687912   23.289152   81.460861
H   10.422990   24.488129   40.532188
H   62.551109   41.027271   63.881641
H   99.419601   53.814854    4.357115
