100
TIME:    6.570, STEP:  6570
H   73.020096   19.520105   93.130997
H   19.028229   60.884182   92.364784
H   92.699615   46.575752   46.221577
H   82.579361   61.966461   80.039307
H   36.324158   99.371902   87.566162
H   26.136166   94.090324   29.395031
H    8.637189    4.974614    4.235666
H    3.497253   56.989513    4.957593
H   92.124733   54.614700   86.528847
H   95.309364   10.719759   64.959816
H   89.129639   30.600576    6.894207
H    5.080620   53.010715   25.268970
H   24.821457   64.289696   72.193291
H   29.773342   84.825294   57.221004
H   60.405220   83.168053   34.951183
H   37.359039   37.092873   87.673340
H   95.786690   16.525921   71.481361
H   41.563663   75.142914   71.773964
H   47.594677   53.974480    9.496142
H   15.511223   66.288124   63.648766
H   74.403610    2.152349   78.920830
H   92.252640   52.805756   59.782089
H   98.023232   41.188835   44.375656
H    8.609867   15.424532   19.127810
H   94.604073   65.127213   85.060829
H   16.596556   32.433838   72.603188
H   95.540230   69.371658   30.326460
H   78.183823   63.105095   83.942429
H   54.029320   45.173565   46.604218
H   52.915791   28.232536    5.685096
H   74.627541   11.200580   89.581520
H   80.591125   70.987244   91.046272
H   33.138752   87.790215   89.674438
H   55.700142   71.621445   94.968384
H   17.447174   62.228859   24.774973
H   43.756252    0.018929   98.770332
H    9.947839   63.927856   26.155493
H   92.442909   38.719479   86.068275
H   67.752380   38.266350    7.630754
H   44.372684   97.121490   54.949177
H   86.238998   81.615273   97.132057
H   46.530212   67.367401   15.370549
H   67.828705    2.899361   76.031517
H   59.825619   22.919943   23.115751
H   86.756767   72.671921   18.322943
H   93.318565   88.229538    9.852568
H   93.062790   82.136612   88.530266
H   56.590290   63.038849   75.092300
H   57.075180   88.322792   82.394608
H   63.677608   30.732718   24.157175
H   43.050465   35.352783   22.684494
H   24.426373   54.093071   42.756691
H   45.154575   60.103821   21.292906
H   24.546471    0.004297   21.731983
H   17.681770   34.368141   56.230824
H    1.778686    5.622721   68.968491
H   12.762141   99.971596   80.849068
H   36.839508   56.432198   44.327988
H    8.439569   16.368984    7.104336
H   25.466873   32.780285   76.744164
H   74.141167   73.035049    2.147858
H   65.735786   66.789444   98.081024
H   20.097338   58.958168   82.945831
H   94.189560   77.552673   48.765980
H   93.096924   36.109074    7.404254
H   97.742126   15.658758   34.653519
H   60.445175   75.502838   84.261368
H   26.531075   93.282082   80.286591
H   84.350075   77.708038   48.174526
H   63.488678   78.594658   87.898590
H   13.404926   48.378586   83.337837
H   32.240871   33.479614   37.646400
H   78.614700   93.328156   93.292053
H   85.577721   33.604336   12.786657
H   78.936394   38.008099   99.448135
H   80.977242   28.647747   53.850945
H   63.479092   57.151394    7.261536
H   40.650875   21.123674   77.276863
H   76.567619   34.220562   90.982231
H   77.326218   51.120888   54.909782
H   39.437447   97.251328   72.662659
H   34.304695   87.078232   37.358364
H   33.442413   16.991613   55.637741
H    2.155629   74.368187   63.348072
H   32.425316   37.928162   10.864511
H    0.079173   50.382332   98.023804
H    5.950214   25.660271   36.826393
H   61.692680   79.336304   27.457153
H   92.028427   28.364744   74.456673
H   85.462540   38.968914   59.076614
H   92.894096   28.193336   72.208176
H   64.412369   89.606430   58.707741
H    6.603198   24.651669   27.072763
H   82.231880   11.767186   69.804016
H   43.001472   61.230034   67.057831
H   36.576675   36.288849   28.100082
H   41.106346   44.718414   59.342682
H   25.595705   11.543191   46.988060
H   95.733574   65.173058   94.730186
H   47.298336   10.038486   64.832512
