100
TIME:    5.241, STEP:  5241
H   62.894936   41.394875   94.347733
H   55.731300   88.865555    8.566951
H   69.845261   50.962265   61.826214
H   82.356293   16.721111   52.886887
H   48.227890   92.846771   23.599571
H   46.749699   95.530128   97.779625
H   78.288689   15.234369    0.306032
H    7.954033   42.014652   26.982510
H   24.794151   82.392548   70.185738
H   31.616518   91.636360   12.920477
H   12.749969   77.125641   34.910053
H   55.808365   86.395027   19.868837
H    9.627914   44.657127    4.249720
H   95.578300   88.921638   56.083473
H   44.249840    1.880537   98.841370
H   90.794022   53.332047   97.991913
H    2.657003   28.622295   50.497253
H   13.142999   39.808674   17.845747
H   26.898777   98.218063   39.477810
H   51.313675   94.516396   73.164284
H   53.268349   34.459373   14.994923
H   64.840118   51.041489   72.958725
H   15.769094   51.997505   82.398651
H   32.093204   99.525848   17.830547
H   42.135284   70.522980   75.245827
H   22.654886   71.722275   97.578262
H   10.141195   24.614315    3.954674
H   90.321602    1.071876   40.012726
H   25.131844   24.596384    9.427734
H    1.957156   61.124962    0.033546
H   22.321037   92.026367   94.727699
H   96.677284    7.710519   14.078392
H   39.526272   85.026115   69.947624
H   99.545609   93.416435   50.955757
H   50.494629   62.740677   43.867897
H   28.228487   95.925911    2.949297
H   82.478851   12.598549   21.435467
H   47.371014   63.044056   92.284813
H   23.847630   67.224663   36.420090
H   69.549019   21.538170   50.385906
H   77.066650   36.014183   65.821388
H   60.589256   47.077309   49.023495
H   56.384640   94.928665   80.036446
H   44.687489    0.612749   93.173508
H    2.038168   25.109116    4.596660
H   10.470835   62.880878    4.453104
H   82.679977    9.860951   75.774818
H   56.519314   49.350571   92.861336
H   18.230888   98.390991   35.408165
H   35.797245   10.502722   17.102264
H   43.144764   63.658783    8.675498
H   59.835106   77.414230   30.000046
H   17.585369   52.397827   98.479424
H   55.319748   21.690750   63.087181
H   23.498951   17.900892   44.925320
H    0.123347    7.020700   14.210800
H   28.508614   38.320045   54.450188
H   35.799454   81.939720   78.558823
H    3.624060   60.214218    9.128181
H   13.167646   30.628826   14.544075
H   90.306610   34.841480    5.767053
H   12.903353   79.159592   58.217331
H   29.871447   49.646896   74.079346
H    2.929132   70.313095   84.846481
H   40.346878   42.254269   83.640327
H   79.383141   81.727501   56.072151
H   67.073242   29.558113   20.097889
H   18.334236   17.275663   16.752707
H   18.112066   73.201500   31.526230
H   36.568398   11.748751   90.697083
H   55.607460   38.802780   99.277077
H   41.822578   77.586288   40.343346
H   65.268356   59.063332   27.368729
H   14.835163   17.716496   91.751579
H   14.861440   36.112019   98.700897
H   49.560516   43.471977   43.276417
H   42.803905   72.291939   83.738121
H   78.212036    8.023819    3.879455
H   12.838952   38.124256   76.158333
H   42.497253   23.516113   69.404419
H   13.429970   83.502213   93.231651
H   34.564430   78.455276   48.528587
H   49.380569   94.767395   29.069990
H   10.722780   60.642868   84.732605
H   97.135384   21.056793   39.696159
H   30.669613    1.563967    5.734109
H   17.189276   22.289536   73.454605
H   40.317322   85.687851   41.239456
H   64.449081    2.362212   85.326180
H    2.963315   93.645554   11.571276
H   38.506004   56.429371   44.142132
H   66.079826   89.652893   33.389496
H   21.411516   84.777077   24.299152
H   53.789970   31.138502   80.191765
H   65.977501   80.272972   36.517765
H   26.806732   88.770721   96.744263
H   46.596184   68.450951   35.774506
H   26.103010   60.861664   72.166130
H   59.043915   59.442188    6.047585
H   64.748154   44.140774   92.858215
