100
TIME:    1.989, STEP:  1989
H   82.814606   39.619827   97.325027
H   45.942619   12.584803    3.465759
H   13.943953   17.000641   99.986626
H   81.810455   50.703758   31.138912
H   77.355759   32.184635   11.775108
H   97.173714   99.053261   75.723564
H   48.726185   95.643700   45.995247
H   63.554817   60.674702   25.570419
H    4.734581   95.059052   74.887367
H   20.485853   44.942451   85.576836
H   15.243088   46.274143   48.158588
H   79.926346   23.388735   51.349602
H   16.742439   41.370216   27.438782
H   56.597847   98.945198    8.603115
H    4.693134   92.362000   55.164200
H   21.551682   37.763985   67.937271
H   64.154831   13.532753   54.447227
H   43.648582   97.975395   30.591442
H   76.242195   61.796471   68.149246
H   38.930763   63.572529   51.752998
H   46.246552   58.206951    3.259853
H   53.066166   46.725189   49.895805
H   59.188011   78.445808   75.442322
H   34.241890   60.536655   59.354820
H   58.445671   28.428329   51.237190
H   37.538891   68.340790    2.743675
H   90.565086   59.798679   39.435848
H   64.714828   49.279507   32.517536
H   54.419769   29.549337   63.151115
H   77.260674   41.612381   41.508022
H   94.343361    0.408842   52.021023
H   91.343964   97.560219   15.132347
H   10.459661   22.957359   76.981781
H   62.141273   91.442856   87.958191
H   31.332012    8.567019   45.843925
H   45.490704   40.730518   13.802258
H   70.569275   31.695623   65.190735
H   81.781715   22.549747   62.798313
H   61.304184   38.048714   51.491447
H   75.851311   25.979467   94.524368
H   99.316078   24.431025   89.204514
H   52.861206    1.123816   96.246765
H   28.373259   75.427383   45.140594
H   52.347893   46.106720   75.207321
H   84.124275   53.413410   26.314486
H   52.426701    0.853914   91.246834
H   57.082081   33.036316   44.619087
H   56.345638   15.861982   91.646004
H   23.171103   67.719444   65.134354
H   67.604179   61.023251   44.550793
H   43.392872   77.618263   74.388550
H    1.795252   79.175156   43.488354
H   50.139275   33.541626   87.351830
H   30.632359   74.756004   19.585394
H   82.416031   32.871052   17.283949
H   96.054916   10.441605   24.916550
H   22.346132   32.155449   45.157951
H   77.951996   89.050842   62.323685
H   47.144417   22.808889   58.787704
H   27.765408   80.669266    7.038283
H   85.168076   86.074165   59.316586
H   28.318054    9.430676    5.357342
H    9.144911   71.518333   97.104904
H   79.620972   52.614159   73.141258
H   11.268138    1.985383   80.793259
H   79.157906   43.393898   63.790554
H   27.987738   17.128237   63.091320
H   42.972023   31.290848   61.288303
H   56.035179    6.869461   35.486069
H   70.678772   48.184685   97.544861
H   58.872856   60.068886   38.292515
H    9.965379   85.513931    2.246459
H   77.304947   19.922794   10.747021
H   86.417503   23.511332   84.996376
H   58.067856   31.473810   52.177837
H   72.681740   35.048668   62.093838
H   47.543602   54.154388   26.225458
H   25.427166   20.664419   24.284641
H   56.892296   47.675632   39.869209
H    1.980971    0.628236   49.567024
H   49.805271   49.858776   98.867043
H   90.559753   57.217239   20.458654
H   43.646885   40.455292   19.342167
H   86.995308   82.362892   81.756714
H   55.481857   24.470779   54.941177
H    5.511612   82.114647   79.905388
H   99.995522   58.736420   18.386641
H   87.974136   46.050339   75.064674
H   96.958931   83.428108   11.927010
H   90.483994   27.442299   95.320488
H    5.420685   80.831299   75.465775
H   25.453306   45.097012   71.419807
H   12.902218   87.229538   72.789536
H   39.472439   33.879917   60.925423
H   22.203239   71.567780   61.791649
H   58.204834   17.188009   64.714493
H    4.725207   81.825218   22.800278
H   14.168069   33.172821   24.211514
H   13.961775   45.424091   78.441208
H   62.764969   27.613571    6.116407
