200
TIME:    0.047, STEP:    47
H    3.540654   63.115520   12.039396
H   26.244068   30.060335   82.062149
H   22.182943   60.690575   35.841911
H   11.336884   74.717934   49.546597
H   17.259386   78.837692   56.433376
H   95.897217   58.053318   71.262627
H    0.563050   55.441071   45.915699
H   98.563721   80.552185   31.923012
H   79.590500   90.399635   52.427650
H   17.655193   77.602348    3.684912
H    5.466499   90.471260   86.862686
H   29.979721   36.871395    3.546172
H    6.437228   80.602623   69.201805
H   13.526390   52.392658   32.965664
H   28.940048   70.458862   43.453465
H   34.925972   33.918457   58.486423
H   75.128143   98.679359   24.802500
H   41.145252   73.888985   46.956383
H   58.603970   36.688923   39.642696
H   89.442230   82.355125   44.952358
H   55.768875   67.123863   34.682674
H   94.325706   41.437279   78.012154
H    0.784725   63.944725   53.767136
H    4.551687   86.351112   92.201263
H   94.857742    4.941642   52.297108
H   18.820856   53.771637   13.330885
H   95.158623   54.924152   41.321930
H   90.081085   62.167599    0.223441
H    2.939862   62.396065   39.468487
H    1.770988   15.594124    5.301880
H   13.613469   43.385990   15.958849
H   35.435692   58.982895   88.851456
H   31.786621    4.832612   70.821724
H    2.814465   63.367355   34.916862
H   57.250294   97.775925   35.687145
H   39.365650   54.322437   77.263351
H   80.725021   78.594627   84.506020
H   42.461685   39.762894   23.845095
H   60.213219   53.311668   40.141582
H   91.933647   40.482151   71.235443
H   80.448227   14.242634   95.118111
H    3.732936   47.153980   45.553905
H   80.176895   92.215546   43.161755
H   37.711227   53.860928   11.845750
H   22.182903   70.406731   37.399117
H   43.775768   18.861391   40.588867
H   76.337143   35.667667   91.947121
H   94.814484   65.553551   54.585953
H   79.616402   36.076244   61.027184
H   69.023499   16.930536   13.877816
H   82.799408   72.938950   35.517494
H   28.515944   32.376080   59.391476
H   46.972309   99.945480    5.403209
H   25.279020   78.110840   78.845093
H   85.368179   80.677193   97.015167
H    7.779778   77.104675   72.328369
H    5.981281   16.015114   51.724888
H   65.300095   54.092770    8.786872
H   32.253632   70.749161    2.458561
H   47.567093   97.072914   70.562035
H   51.044582   19.141888   47.875340
H   86.469017   15.967692   47.587082
H   66.130211   21.208336   91.396194
H   19.449831   64.876984   99.358498
H   68.245872   73.201859   10.037375
H   46.310421    9.063094   29.394150
H   93.384377   27.233007   81.847664
H   98.422218   91.011131   83.450485
H    9.657619    3.245130   64.422638
H   46.347946   38.266121   50.992901
H   58.549831   73.254036   68.118851
H   37.564346   28.894871   46.115822
H   71.368301   22.326473    5.958103
H    1.577701   13.206887   54.954407
H   76.794968   97.747093   76.687569
H   48.435455   25.890472   64.138565
H   96.243332   22.765265   74.875542
H   33.703644    2.455493   54.567162
H   10.063240   21.094551   39.213047
H   71.184227   91.743324    3.414603
H   35.176731   33.363792    3.998411
H   18.150229   72.060867   93.823692
H   11.752699   11.549253   95.926651
H   30.967785   55.548576   87.561127
H   45.780987   97.283005   63.251698
H   19.229738   92.527084   31.800465
H   27.205175    2.381940    1.328869
H   76.936485   25.727436    4.162699
H   59.784260   71.570641   76.463959
H   24.410809   77.396378   56.988811
H   49.332916   33.226692   81.612938
H   85.399796   86.842117   94.156570
H   38.091339   19.038782    1.226518
H   68.682724    1.367525   63.805267
H   20.234449   59.536896   59.901550
H   77.264656   23.394215   38.135918
H   76.687538   20.954630   90.017113
H   12.200382   25.439650   46.766232
H   41.391151   71.711388   52.197285
H   63.848667   94.791016   27.203287
H    1.255351   75.090149   59.851353
H   83.395470   73.736656   66.929199
H   19.178686   44.223099   27.805639
H   12.601898   67.583145   82.498146
H   25.594582   30.009068   18.830261
H   79.782440   36.222275   52.926601
H   56.515720   27.700331   57.157440
H   65.887947   26.864155   26.204468
H   67.891754   42.525860   89.800056
H   98.167130   30.751333    4.592673
H   44.655262   97.743927    0.660061
H   78.244331   58.491291   88.312759
H   60.446125   78.035027   98.133392
H   63.877953   23.558187   79.930939
H   70.290855   73.931808   33.539860
H   21.914799   11.443510   70.227654
H   40.510098    5.725000   81.930161
H   41.750309   17.496819   37.836388
H   11.532739   50.467571   93.078339
H   65.689346   42.822872   42.143101
H   38.540230   20.476910   93.844101
H   26.616669   32.052059   42.511044
H   27.583380   29.962399   18.303806
H    6.920841   74.264481   26.316832
H   82.689766   13.727435   99.196404
H   40.651531   57.071404   29.257847
H    0.183924   48.288773   78.508423
H   79.650253   86.056267   33.372547
H   90.092621   59.469818   89.288544
H   58.390572   25.064119   63.213577
H   40.818100   92.076874   96.035744
H   89.108017   84.137161    4.775636
H   93.067970   73.204773   95.939491
H   10.384352    8.054526   47.331257
H   94.891777    4.859820   65.285591
H   67.498482    1.874548   86.524948
H   68.573189   86.072716   45.730774
H   89.572121   70.246284   86.247864
H   41.268539   41.634590   71.595734
H   43.343399   18.346495    0.820345
H   41.062778   68.744926    8.675676
H   66.123199   35.146702   41.747749
H   61.209766   53.208649    5.893905
H   66.556755   33.514133   74.926216
H   31.230030   76.167915   42.757526
H   38.868580   58.650150   39.089619
H   40.166588   97.622993   48.663811
H   47.922424   80.602890   69.932274
H   60.025730   72.849655   99.863091
H    3.278330   86.517433   97.209457
H   83.023048   58.032223   52.801208
H   25.663284   12.449978   54.200512
H   67.209862   39.055180   10.240124
H    4.807956   96.712227   80.721863
H    5.959334   48.782074   57.261242
H   57.772705   43.050350   48.123211
H   57.291027   55.096031   78.470505
H   43.302113   39.756508    5.202479
H   21.215094    2.461550    9.762125
H   65.842850   64.818604   70.834534
H   52.060139   92.250305   88.547455
H   52.665707   24.056479   37.215969
H   56.911663   42.984394   37.312302
H    4.190427   14.509854   79.456421
H   60.802139   15.539536    7.928184
H    8.588483   70.579460   63.356850
H   78.223206    0.688482   50.175697
H   23.463615   22.151470   40.031910
H   91.450485   28.797852   37.312664
H   17.665356   11.916174   92.576721
H   83.052063    3.338602   35.992271
H   52.830299   72.615112   56.865444
H   33.943905   85.747208   95.854507
H   73.597954   79.170792   69.773544
H   80.408173   96.488403    8.305675
H   94.948326   46.618340   23.101582
H   37.400429   46.892109   78.834396
H    0.019488    9.016800   62.412334
H   80.537300   25.866190   71.392143
H   95.481400   52.384804   83.662399
H   84.941444   78.273209   46.206661
H   15.334847   29.870449   62.570385
H   74.520050   90.366013    2.250179
H   47.278481   24.862896   70.090019
H   83.027122   96.705391   79.191971
H   95.219963   34.595215   82.988258
H   24.632027    7.830545   94.989090
H   99.693214   59.049828   18.773417
H   12.207518   60.312744   64.337646
H   46.103931   59.323185   63.264606
H   38.600380   37.409725   80.679695
H   49.235088   79.684250   27.082682
H   99.813522   12.932485   53.385113
H   38.475529   55.827839   29.423500
H   91.517792   62.875931   22.447607
H   74.856949    9.909862   32.210594
H    8.178388   80.296791   96.952530
H   34.518673    1.241784   52.409710
H   14.487009   11.071865   86.648705
H   10.020791   41.531258    0.430241
