100
TIME:    5.315, STEP:  5315
H   57.890541   34.608681   94.279984
H   53.687538   92.875168   13.232882
H   71.117813   56.286209   60.957333
H   82.368713   13.672123   48.830414
H   47.565079   98.778198   21.593353
H   45.601917   95.449959    5.108099
H   74.410057   20.231403    6.092980
H    2.137779   48.416370   20.187847
H   22.975090   75.277771   65.527992
H   29.594492   92.698891   15.818441
H    5.866669   80.103210   27.782124
H   52.983795   90.104286   14.601633
H    4.905807   40.182304   96.896660
H   91.914207   88.693550   61.715111
H   45.149773   95.270554   95.284546
H   87.818710   46.859756   91.849335
H   96.706337   33.516598   57.233765
H   14.725362   36.208378   15.280600
H   28.051357    1.322309   43.376202
H   49.320160   92.944618   78.202553
H   48.877083   27.092232   12.986446
H   71.934570   51.139725   66.656937
H   14.780946   51.395668   80.281494
H   25.217522    0.411104   12.334596
H   39.488556   64.654785   75.792336
H   22.317553   69.535110   90.619308
H    3.760083   21.538227    5.423064
H   84.077400    4.525917   42.459030
H   26.740883   31.310030    5.929867
H    4.794545   59.293480    5.916189
H   25.233398   98.662384   88.873055
H    1.349684    5.666122    7.227845
H   44.738995   79.611839   76.614128
H    2.672355   86.634758   47.838173
H   48.655243   57.146866   48.373772
H   34.661091    1.721900    2.716551
H   89.576691    9.888306   27.266399
H   44.312710   61.689640   97.507133
H   20.723835   65.612236   29.248964
H   62.578892   14.610521   56.208370
H   72.009186   38.553078   67.564796
H   53.938560   50.398705   52.499584
H   57.022045   95.372421   85.381844
H   39.962559    1.854850    0.409083
H   95.619041   22.189697   10.929217
H    9.515985   64.292313    4.753938
H   83.258102   13.885526   76.485054
H   56.523266   50.112747   97.440041
H   20.393776   92.261963   32.456001
H   37.349262   11.629049   11.926804
H   43.139118   56.514648    9.455600
H   63.431450   70.547867   25.141876
H   19.120449   52.826904   94.181877
H   53.606262   20.483124   66.352684
H   17.606762   24.385885   45.554821
H    0.215524    6.942859   11.691666
H   33.199669   36.184822   61.488182
H   30.289288   74.951408   76.652817
H    9.460091   63.340889    3.447151
H    8.284494   36.316921   12.439339
H   94.974518   31.400345   99.997520
H   10.277231   78.470810   54.868835
H   34.895481   44.597336   69.004944
H    8.010661   70.716202   82.837723
H   43.284363   36.343731   90.531532
H   74.837181   78.048729   60.447609
H   61.136169   32.116474   23.670803
H   13.222495   21.508001   20.290335
H   21.800436   67.884331   26.884857
H   38.067345   15.470854   90.541260
H   53.257698   33.767899   98.389565
H   35.721214   75.130386   45.761574
H   60.443497   55.403191   25.471191
H   13.206364   13.033062   87.354668
H   18.429228   36.217594    4.310681
H   51.310135   48.214973   38.297428
H   49.522915   65.878365   85.046806
H   81.688690    3.185063    7.966343
H   16.387432   37.906895   76.983742
H   38.868729   19.485046   63.029236
H   14.877964   84.267776   97.654533
H   40.117027   78.938553   42.340843
H   54.061462   96.004944   36.117580
H   15.813837   66.975143   77.973511
H   93.532265   16.427841   32.522667
H   28.966290    4.282115   10.873013
H   22.131567   16.909134   76.983200
H   41.508575   79.763199   40.469940
H   65.984726   98.242043   84.720955
H   96.420837   90.601364   14.216452
H   41.534386   60.424870   45.704876
H   71.555077   95.218475   34.799240
H   26.155077   86.996986   30.021687
H   60.941444   35.628002   85.181480
H   64.698174   73.644859   38.218266
H   32.918823   85.848480   92.922089
H   40.722343   72.697685   31.518738
H   26.374571   61.491730   70.981651
H   55.518707   59.761173   99.849144
H   69.344925   42.242107   85.729889
