100
TIME:    1.387, STEP:  1387
H   23.525053   94.826431   97.876175
H   62.688316   79.946663   65.491783
H    3.596156   73.690514    7.054137
H   81.709412   75.505394   64.138786
H   82.747818   83.931694   28.097023
H    6.508388   99.705452   16.104704
H   80.277153   54.995556   98.917976
H   10.870834    8.595695   80.844521
H   19.532890   52.939026   12.779914
H   36.935997   36.298622   62.005707
H   71.239670   22.051212    6.146971
H    2.900561   93.214012   94.201317
H   55.034325   77.791878   87.272392
H   86.405739    0.800921   62.792614
H   97.370811   46.133305   84.100845
H   45.756393   90.418938   17.907700
H   12.554621   73.721512   99.638878
H   30.783882   27.251022   51.461716
H   66.863503   36.540138   36.434704
H   55.148277   76.358994   10.766001
H   81.970093   18.136833   19.599079
H   95.342339   45.930618    1.153872
H   67.225578   83.341835   92.665680
H   90.174171   53.316624    4.062886
H   79.977165   76.172646   46.795860
H   40.299221   86.280640   59.168365
H   42.476349   84.821548   27.489729
H   15.510941   21.180172   12.618876
H   41.330017   74.931549   91.608696
H   54.176785   56.511734   93.651512
H   70.662392   46.423935   99.657379
H   53.333164   14.192472   70.862541
H   68.057205   67.002754   22.748869
H   36.705818   46.612404   13.319418
H   46.295769   54.073616    9.188026
H   93.148682   93.439590   15.871791
H   12.830705   53.741554   17.755316
H    6.665089   33.568104   20.318623
H   88.365982   50.899635    9.189010
H   32.553841   82.337151   47.160793
H   40.454720    3.774595   75.021652
H    6.965538   74.108238   67.963715
H   23.187880   71.817368    1.658346
H   90.790428   36.016129   16.347879
H   36.343689   77.165817   74.799393
H   60.193287   89.371681   88.803413
H   50.725513    0.560369   39.475044
H   56.313488    9.663870   54.397625
H    5.575640   17.578362   89.146011
H   54.979618   51.860424   86.656334
H   43.438801   35.738014   68.041168
H   72.538643   35.035595   83.008011
H   37.651192   30.051025   22.314442
H   44.571796   84.575615   93.021744
H   30.340858   80.097137   12.175789
H   95.301682   11.074276   45.410049
H   84.181381   49.525780   87.902611
H   22.778763   45.902870   77.829300
H   99.667595   97.372055    5.002193
H   67.489761   34.397495   24.159996
H   47.194012   14.070722    6.255049
H   49.683807   15.035156   32.597412
H   68.313324   12.570225   38.404640
H   38.282051   49.339424   89.482780
H   87.374672   50.067234   24.729460
H   16.139503   73.321205   28.195616
H   76.286819   96.315796   34.027477
H   84.556099   96.860519   32.509220
H   26.029793   50.125351   73.243141
H   58.482117   17.904795   98.812500
H   77.988487    1.028833   45.512547
H   59.601681    5.493345   58.172295
H   16.556713   49.698536   26.183743
H   99.663414   61.608887   20.775063
H   29.045116   30.617235    6.541564
H   58.451160   96.465965    2.602761
H   92.885429    6.330789   15.576487
H   97.144104   60.029465   91.038361
H   28.035135   49.439304   33.154396
H   31.504532   33.414742    1.429981
H   38.024494   43.630810   62.886303
H   45.391331   53.285721   70.797318
H    5.557607   30.406401   62.004765
H   45.583721   30.848978   36.742867
H   84.793716   62.127930   13.298264
H   19.368275   60.003620   38.100853
H   59.789314    2.506727   89.680527
H   78.283127   94.248184   81.325157
H   84.466255   16.946413   16.851940
H   43.709183   52.211784   73.798180
H   80.784279   48.325001   62.752636
H   80.910912   99.822182   59.948380
H   74.276711   69.188644   26.217291
H   81.286781   97.364052   20.337345
H   32.612904   25.490463   47.957848
H    8.482147   40.959404   95.808395
H   52.508652   47.277462   57.421524
H   11.957738   28.047150   33.844673
H   42.638451   42.829105   28.868656
H   25.378799   43.077198   64.097969
