100
TIME:    5.986, STEP:  5986
H   12.513857   73.075493   93.665665
H   35.155586   29.236296   55.542957
H   82.656769    4.561213   53.078693
H   82.481339   86.026520   12.049323
H   41.554993   52.561722    3.400960
H   35.194332   94.723015   71.560631
H   39.243908   65.542366   58.566074
H   49.398499    6.467652   58.580105
H    6.480629   10.763949   23.289164
H   11.261850    2.333645   42.093845
H   43.451889    7.102320   63.146729
H   27.371819   23.737644   66.839043
H   62.087814   99.604515   30.222588
H   58.689796   86.625343   12.776730
H   53.309975   35.333511   63.032650
H   60.839874   88.171486   36.151093
H   42.748665   77.897621   18.317541
H   29.074713    3.560219   92.020058
H   38.500866   29.473322   78.727264
H   31.243828   78.692421   23.887293
H    9.058983   60.292988   94.773735
H   36.263992   52.030487    9.515045
H    5.821005   45.938469   61.084030
H   62.873249    8.438204   62.502087
H   15.490901   11.439476   80.747841
H   19.258757   49.699158   27.521301
H   45.899704   93.645584   18.737532
H   27.460781   35.845940   64.640915
H   41.330956   92.188995   74.210907
H   30.522263   42.686394   59.258316
H   51.643333   58.830936   35.785667
H   43.716862   87.125305   45.110039
H   92.002678   30.517603   37.063110
H   31.025127   25.141441   19.570395
H   31.976482    6.423557   89.234253
H   92.990662   54.278084    0.606325
H   53.933731   85.314575   80.138771
H   16.580933   49.408382   44.856358
H   92.400574   50.991447   64.224403
H   99.379517   51.794529    9.000036
H   26.150612   61.574677   83.373268
H   95.746399   65.077240   85.555168
H   62.801762   99.396210   33.849396
H   97.118210   13.117697   66.014366
H   37.414669   95.716110   68.348495
H    0.857083   77.090622    7.479979
H   88.500290   50.377335   82.925163
H   56.559101   57.023834   38.957661
H   40.005905   36.689102    5.689082
H   51.422283   21.842100   64.994064
H   43.090565   91.733521   16.529129
H   96.041542    8.283047   81.092384
H   33.039890   56.717590   55.212429
H   38.069115    9.533647   95.962852
H   64.180748   83.189560   51.262867
H    1.051315    6.237032   88.849228
H   75.737541   16.823540   25.305977
H   80.325836   11.583593   59.369980
H   62.378700   91.691826   51.936455
H   64.003067   87.891739   93.354515
H   37.302540    0.196153   47.679630
H   86.463081   72.225235   24.506126
H   80.450493   98.808754   22.992462
H   54.088364   74.371399   64.623169
H   69.919067   82.752609   53.019306
H   33.616386   44.691216    0.122371
H    7.300195   55.312130   56.066544
H   66.871773   59.883152   52.368015
H   55.244976   19.670540   84.801208
H   51.659149   49.221321   89.128326
H   31.951065   88.113327   90.341988
H   80.393692   52.861328   94.888504
H   16.692860   22.214615    8.265144
H   98.436485   70.564049   47.485374
H   50.779308   37.174908   55.177628
H   67.173897   91.219170   93.147888
H   10.444591    7.718962   96.913399
H   13.213496   59.311699   45.024849
H   48.562382   35.935955   84.468193
H    5.966278   82.933632    5.221961
H   28.008921   91.209579   37.757755
H   90.478256   83.290863   86.211845
H   96.501854    7.225968    0.019211
H   61.975677   24.394215   16.688923
H   60.860741   74.458076   67.476837
H   13.521290   28.929100   57.469238
H   66.946129   68.121819    8.979101
H   52.300346   26.067526   33.512268
H   79.909286   60.881218   79.233040
H   37.095791   62.997784   38.202286
H   68.994438   96.658936   59.875164
H   21.202280   45.683456   47.582191
H   69.167633    7.127927   81.911148
H   25.791538   76.336861   30.425722
H   53.097786   13.539700   53.637669
H   88.340622   59.350861   58.264267
H   87.462059   11.204867   92.928741
H   26.722963   82.645401   58.710655
H   23.553650   62.653591   43.647354
H   11.025415   25.024784   21.089909
