100
TIME:    5.691, STEP:  5691
H   32.462807    0.128558   93.935745
H   43.303017   13.249873   36.941158
H   77.583755   83.337601   56.542477
H   82.431824   98.180145   28.219410
H   44.197281   28.916170   11.399273
H   39.769947   95.042610   42.345249
H   54.703770   45.621845   35.496693
H   72.584915   80.945511   85.665138
H   13.732292   39.127014   41.858925
H   19.320414   98.097694   30.543234
H   70.892075   95.232483   91.563637
H   38.631927    8.951002   87.837807
H   80.912430   17.444447   59.535332
H   73.296654   87.534615   90.327278
H   49.722404   61.684372   77.212036
H   72.700912   13.973481   60.638397
H   66.470741   58.384945   91.462524
H   22.766081   17.913876    2.246878
H   33.907246   17.096880   63.184246
H   39.190948   84.958290    3.802360
H   26.564705   89.660034    2.781216
H    7.982056   51.638870   34.637039
H    9.760087   48.337685   69.524048
H   90.282021    4.909152   84.410278
H   26.040951   34.835205   78.569191
H   20.603533   58.420509   55.261009
H   71.338394    5.907959   12.883835
H   52.351162   22.076332   54.888901
H   34.916542   65.424011   88.156067
H   19.211514   49.987572   35.806320
H   40.032120   32.378796   59.125130
H   25.090305   95.277237   72.419685
H   71.224480   52.101463   10.487180
H   18.559784   52.176506   31.997477
H   39.309174   28.724092   71.269394
H   67.346512   31.172649    1.534079
H   25.640289   96.117798   56.893841
H   28.773220   54.807743   24.039898
H    4.852015   57.419365   92.812431
H   27.165182   79.411263   85.790672
H   46.311798   51.453407   76.423195
H   20.607662   63.920547   70.493675
H   60.260754   97.627182   12.541354
H   15.954805    8.166220   37.171852
H   63.002552    7.355477   43.104961
H    4.663907   71.463943    6.281497
H   86.195602   34.334549   80.093819
H   56.543346   53.985428   20.704718
H   31.383583   61.120140   17.457211
H   45.235188   17.352011   85.628220
H   43.110821   20.214254   13.419360
H   81.704765   35.656986    0.457211
H   26.920315   55.007080   72.345695
H   44.899902   14.347270   82.944969
H   87.668755   57.337765   48.753368
H    0.683863    6.547343   98.891724
H   57.035301   25.335579   97.248802
H    2.292323   39.443230   66.968246
H   39.113510   79.227608   74.582710
H   83.471375   65.218475    1.745005
H   18.693184   13.914560   70.679893
H   96.933205   74.971054   37.854858
H   60.423618   18.939379   43.221497
H   33.830070   72.764420   72.631058
H   58.209961    6.313017   25.547346
H   51.738792   59.356590   82.679665
H   30.969372   45.114338   41.824295
H   87.249352   43.012119   38.265308
H   40.541340   40.867363    3.302047
H   45.683617   34.382645   89.749512
H   41.318367    8.185038   93.880043
H    4.718649   62.651749   73.291061
H   35.927994   36.805717   15.829651
H    4.930302   89.235619   65.013603
H   36.557316   36.754032   32.814957
H   60.200089   72.313530   12.997791
H   83.661095   33.287769   91.696342
H   99.353851   78.600502   28.732241
H   34.416912   36.802464   81.177711
H   20.432800   99.003426   30.636353
H   22.235949   88.157669   20.126753
H   68.336151   81.377792   10.888543
H   77.843788    2.292827   71.926331
H   41.681374   99.149948   43.631710
H   75.224525   92.909081   96.073868
H   20.311565   18.093243   36.983627
H   47.243752   89.570717   94.912277
H   47.555931   49.674534   36.570930
H   73.787460   77.306618   81.645760
H   63.178822   75.133591   27.657427
H   56.921837   80.728683   53.645306
H   99.375267   23.496771   41.962265
H   50.257492   98.276527   59.098347
H   97.281288   58.439526   10.534444
H   58.197807   39.964832   46.858646
H   63.974854   71.000336   73.501312
H   10.877777   94.275688    9.894633
H   27.292383   68.047546   64.632408
H   37.606842   61.381962   68.357079
H   92.701492   32.594830   49.509136
