100
TIME:    4.382, STEP:  4382
H   20.985394   20.169495   95.134171
H   79.455513   42.318481   54.405823
H   55.077293   89.163017   71.907143
H   82.212112   52.112236   99.969856
H   55.921875   23.994127   46.890060
H   60.073269   96.460747   12.709980
H   23.310123   57.232403   33.131115
H   75.469734   67.699677    5.852579
H   45.910011   64.981949   24.255304
H   55.091637   79.302391   79.284790
H   92.652069   42.561695   17.653412
H   88.591362   43.337547   81.013741
H   64.442642   96.601357   89.604492
H   38.109612   91.569313   90.711777
H   33.803322   78.609619   40.133701
H   25.334023   28.463432   69.296814
H   71.732735   71.805008   72.299095
H   94.775887   81.603905   47.624020
H   13.519501   62.185768   94.223907
H   74.457573   12.759447   14.679514
H    4.242615   19.975140   38.308647
H   82.486954   49.901154   46.110489
H   27.238014   58.983696    6.975307
H   11.906258   89.236877   81.627792
H   72.858795   38.645340   68.901894
H   26.570692   97.111115   78.354591
H   84.214348   60.324474   86.913857
H   62.800373   60.976654   11.616015
H    6.453103   46.661098   50.032326
H   69.018631   82.385002   31.744526
H   88.514412   14.998233   62.689049
H   42.439281   31.441849   93.600380
H   79.019997   47.874046   92.562119
H   63.251495   72.138611   87.145012
H   71.846420   27.674644   91.562149
H   53.557270   28.646137    5.651578
H    0.090256   44.058090   53.749744
H   82.875618   78.760109   31.667049
H   60.108974   85.941887   19.663839
H   50.457573    1.954604   82.801331
H   35.772568    6.542376   45.583721
H   37.791946    8.523772    8.671690
H   48.985569   89.777496   17.990610
H   99.539230   86.207550    9.183850
H   76.549034   58.998039   31.090677
H   21.553875   46.496754    0.961124
H   75.969040   63.145958   67.530327
H   56.473438   40.503143   39.711235
H   93.121811   69.531586   69.676117
H   17.781261   97.429482   77.181007
H   43.210300   46.589912   99.619919
H   18.089449   57.123180   86.391602
H   99.767281   47.417053   48.370083
H   75.213768   35.709007   25.181461
H   91.893250   42.616367   37.618000
H   99.049088    7.924284   43.453186
H   74.050735   63.105949   72.752083
H   99.763077   63.061852    0.684011
H   35.875488   23.919376   75.075325
H   69.850922   64.604401   38.976082
H   36.121033   74.787743   72.739906
H   43.388878   87.155045   97.081451
H   71.555367    8.262980   32.983574
H   43.943855   65.633789    8.166660
H    6.250669   10.860565    3.645313
H   32.151802   24.430489    5.281675
H   35.992874   99.860901   78.624924
H   77.670982   68.148453   75.687538
H   75.301346   34.923752   85.401184
H   19.166040   68.545898   92.505890
H   82.883751   97.248230    9.581940
H   12.651564    6.094853   77.451958
H   21.277006    1.556194   49.395546
H   33.744991   72.078911   42.790062
H   73.443977   34.886486   33.583828
H   29.250757   88.417931    1.077167
H   64.813156   46.744129   68.546761
H   37.854656   64.193733   56.442657
H   71.644356   40.647411   66.576897
H   84.623566   70.301964   43.407951
H   96.622116   74.615463   41.890362
H   70.112709   72.845352   20.357500
H   95.044807   80.401917   47.263927
H   51.623932   87.136055   63.187889
H   38.962784   74.788857   22.966537
H   50.441975   70.014534   46.082657
H   59.818596   84.745819   32.494293
H   26.490427   54.460670   50.172081
H   46.623154   50.189171   92.351692
H   78.911301   28.988213   80.862518
H    3.352117   10.047638   26.001627
H    2.520266   25.049576   17.023752
H   66.348213   59.000153   57.871319
H   70.765427   79.034103   22.274775
H   80.828072   57.217613   16.780697
H   55.856827   22.690849   41.113060
H   14.780004   19.154400   85.175919
H   22.950705   53.547791   85.915688
H   99.964905   55.739376   77.998833
H   11.394651   66.181343   75.608719
