100
TIME:    1.891, STEP:  1891
H   89.442047   48.606949   97.414749
H   48.668663    7.271398   97.284019
H   12.259428    9.950385    1.137096
H   81.794006   54.741234   36.510937
H   78.233536   24.329502   14.432178
H   98.693001   99.159431   66.018669
H   53.862003   89.026726   38.331520
H   71.257423   52.196751   34.568756
H    7.143608    4.481400   81.055733
H   23.163671   43.535316   81.739738
H   24.358810   42.330875   57.598057
H   83.666245   18.476473   58.325462
H   22.976227   47.299324   37.178993
H   61.450294   99.247261    1.145016
H    3.501031    1.115810   59.875336
H   25.492111   46.335854   76.072037
H   72.033890    7.051857   45.525154
H   41.554329    2.741193   33.989059
H   74.715431   57.684975   62.985912
H   41.570824   65.653915   45.080696
H   52.062012   67.963135    5.919727
H   43.669315   46.595840   58.240669
H   60.496452   79.242836   78.246124
H   43.347145   59.361301   66.633224
H   61.950798   36.200470   50.514183
H   37.988247   71.261230   11.929166
H   99.015373   63.872791   37.491131
H   72.984177   44.705196   29.278269
H   52.288879   20.658293   67.783745
H   73.502831   44.037857   33.717190
H   90.488319   91.620590   59.775219
H   85.156158    0.268252   24.204704
H    3.556513   30.127243   68.153168
H   58.000618    0.423989   92.086884
H   33.768059   15.975226   39.876686
H   36.970135   33.031651   14.139089
H   61.169662   35.284523   57.468693
H   85.832649   24.343433   55.883015
H   65.709976   40.140724   60.884560
H   85.082176   35.154011   86.814285
H    6.013130   21.068331   86.895676
H   61.668884   96.725792   91.642548
H   27.529127   74.839706   38.062302
H   58.605980   44.464066   65.625046
H   92.625404   57.279667   17.928125
H   53.691029   98.984718   90.849068
H   56.047291   27.749468   43.781685
H   56.340405   14.852987   85.582314
H   20.306738   75.836266   69.043228
H   65.549553   59.531628   51.404781
H   43.400349   87.079414   73.355255
H   97.032661   88.268448   49.922146
H   48.106331   32.973389   93.043175
H   32.901569   76.354546   15.261183
H   90.217331   24.279791   16.452528
H   95.932297   10.544598   28.252701
H   16.133654   34.983177   35.837364
H   85.249359   98.305634   64.847855
H   39.415642   18.667860   66.311386
H   34.232098   73.137131    9.825450
H   78.986252   90.632027   66.957420
H   31.795891   10.343033    9.791705
H    2.497479   78.201103    3.828131
H   72.891846   52.081062   75.801506
H    7.378314    9.812593   71.667068
H   85.178230   48.265785   57.996029
H   35.850540   13.740247   58.359997
H   49.741524   25.685860   56.603336
H   51.150581   13.911118   41.632751
H   68.692932   43.255226   97.751221
H   61.984703   66.737144   39.467869
H   18.045797   88.766342   95.071587
H   83.694626   24.770008   13.259975
H   88.573814   29.712969   90.820808
H   53.343262   31.334368   44.748882
H   70.365425   28.767595   68.688164
H   38.645454   62.648788   24.491961
H   20.822948   27.072416   18.872181
H   52.194618   47.962742   38.776100
H    6.787156    5.965578   58.009834
H   47.887470   48.844921   93.009712
H   83.207062   56.577225   28.653608
H   37.446369   38.819366   10.008242
H   80.254219   73.976906   90.707947
H   60.253555   30.601013   64.441208
H    7.767272   78.515312   73.099998
H   93.450325   65.861816   13.713545
H   86.396530   53.896500   76.084511
H   94.925240   88.884682   12.728710
H   99.148117   31.474541   91.816856
H    1.410036   75.539215   73.396194
H   18.202135   37.726696   69.552101
H    6.614597   84.292648   65.208054
H   30.000072   27.935366   54.318169
H   23.897858   80.345551   59.539635
H   50.110443   21.057631   69.776291
H   12.503890   76.201164   28.436295
H   13.808248   32.338409   25.779774
H   18.630001   45.001652   86.650742
H   56.678848   30.130638   15.555334
