100
TIME:    7.142, STEP:  7142
H   34.337479   67.065224   92.607315
H    3.232530   91.877846   28.430801
H    2.535114   87.728401   39.505360
H   82.675369   38.400787   48.686100
H   31.200464   45.220135   72.056458
H   17.264126   93.470634   86.042496
H   78.657211   43.600231   48.966854
H   58.539177    6.476334   52.439781
H   78.063881   99.619095   50.524097
H   79.686195   18.933535   87.355934
H   35.923584   53.616383   51.795425
H   83.250839   81.682281   84.553993
H   88.328011   29.688969   15.354534
H    1.452536   83.062233    0.748426
H   67.352730   32.074181    7.444794
H   14.359013   87.063477   40.192871
H   49.789986   54.357555   23.552790
H   53.795994   47.309235   51.946541
H   56.501629   77.969650   39.629658
H    0.101887   54.142254    2.593194
H   40.460312   45.209099   63.393841
H   47.090836   53.565094   11.070969
H   90.386208   36.536797   28.010073
H   55.463829   22.267305   76.647202
H   74.145576   19.763397   89.285194
H   13.932156   15.555267   18.788553
H   46.216572   45.593132   41.677258
H   29.920818   89.804131    2.847828
H   66.466759   97.070412   19.565794
H   74.849319   14.075527   51.156883
H   97.137123   62.491615   44.326698
H   16.707333   55.183224   38.093330
H   73.430672   45.939323   41.204720
H   79.868050   19.200912   70.870300
H    3.210965   18.920387   59.577980
H   93.479820   44.821136   96.972359
H   64.808792   42.980591   71.227020
H   68.798683   28.250210   26.432655
H   43.606968   25.803812   52.199295
H   90.496895   43.573376   99.951767
H   47.146164    1.244357   10.607338
H   98.324974   69.610504   44.571407
H   72.751312    6.330654   17.348591
H   23.303188   32.520775   79.042107
H   37.140297   50.103931   67.270332
H   85.934654   99.139572   12.176405
H   97.531540   13.244115   94.020195
H   56.623531   68.930267   10.484159
H   73.796272   40.949184   59.578697
H   75.687256   39.439243   84.163704
H   43.011189   80.129349   28.713379
H   52.229992    1.013675    5.208918
H   57.020329   63.420471   88.072609
H   11.301689   90.674026   46.972549
H   72.138168   84.495781   61.096699
H    2.491112    5.021032   49.496262
H   49.022831   83.466896   35.251167
H   94.247971    2.413297   29.594721
H   53.550560   40.541256   63.193520
H   87.720634   76.746460   60.475121
H   10.223143   46.434906   57.548439
H   45.434395   61.465347   72.202423
H   58.932026   19.925755   43.722076
H   33.467731   80.668579   33.234455
H   15.800231   90.424561   60.672413
H   62.603088   87.223442   68.474625
H   14.552378   95.280548   11.877666
H   87.018852   25.996359    7.631499
H   12.857405   36.607758   12.298083
H   75.079308    7.362939   86.694122
H   95.240898    9.460128   76.477608
H   85.135475   14.464072   79.553047
H   41.319839   65.038208   78.628967
H   72.983177   97.402710   78.800415
H    6.509251   38.831394   42.812870
H   94.496956   65.309471   15.363782
H   15.428720    7.641663   17.405725
H   67.524475   83.722755    8.864614
H    3.999295   32.540417   97.362419
H   49.274338   19.960987    5.631544
H   50.631264    3.169625    6.850172
H   77.226112   90.787643   89.504616
H   69.623772   26.557531   10.110653
H   41.507595   23.315651   11.106361
H    4.573469    2.147205   55.415550
H   86.917282   71.393524   37.745468
H   44.152821   84.070885   64.101479
H   70.892021   33.563625   21.526459
H    3.899081   96.517601   69.778450
H   34.889835   15.433788   79.525330
H   16.302814   59.077728   84.287766
H    6.734575   32.625565   69.606926
H   43.269382   41.815334   71.306404
H   37.513268   46.469688    8.373044
H   33.112617    9.992149   80.202240
H   83.821487   13.702371   98.555122
H   95.704308   77.544525   26.446377
H   24.491610   39.845394   35.506340
H   68.484673   67.643089   46.820477
H   82.828087   95.359726    9.728301
