100
TIME:    4.958, STEP:  4958
H   82.033363   67.347481   94.606827
H   63.547310   73.531494   90.723389
H   64.978607   30.601849   65.148354
H   82.308792   28.381432   68.399544
H   50.762695   70.163071   31.271999
H   51.139187   95.836723   69.754265
H   93.121834   96.124771   78.175064
H   30.197273   17.532406   52.967503
H   31.750832    9.601938   87.998466
H   39.350426   87.572899    1.837845
H   39.073944   65.738449   62.168926
H   66.609917   72.209618   40.012764
H   27.686783   61.770302   32.370117
H    9.590585   89.793922   34.546265
H   40.808205   27.158655   12.445171
H    2.172762   78.084183   21.483829
H   25.414375    9.904719   24.734648
H    7.091488   53.577374   27.655703
H   22.490936   86.347229   24.569094
H   58.937523    0.527283   53.896309
H   70.061974   62.633713   22.675987
H   37.708633   50.665802   97.058807
H   19.547585   54.299126   90.495346
H   58.389111   96.140350   38.848839
H   52.257233   92.964859   73.155800
H   23.944960   80.086700   24.190512
H   34.544746   36.378674   98.339638
H   14.200488   87.862396   30.657267
H   18.978355   98.920860   22.804554
H   91.105545   68.129143   77.535530
H   11.182990   66.648087   17.117760
H   78.808418   15.529218   40.277138
H   19.591801    5.731833   44.452751
H   87.588409   19.351501   62.878410
H   57.529037   84.133224   26.635971
H    3.628492   73.760399    3.839408
H   55.335098   22.963398   99.136459
H   59.066959   68.222023   72.312965
H   35.794033   73.391106   63.845215
H   96.205498   48.032288   28.119104
H   96.408035   26.304625   59.154034
H   86.023674   34.375214   35.729801
H   53.946995   93.231598   59.594376
H   62.757153   95.862671   65.502243
H   26.586267   36.273918   80.379784
H   14.122444   57.483082    3.302645
H   80.469040   94.470177   73.058647
H   56.504200   46.435760   75.350883
H    9.959305   21.828442   46.698196
H   29.861828    6.195280   36.894905
H   43.166355   90.980270    5.692135
H   46.081520    3.673617   48.579262
H   11.715119   50.756897   14.915640
H   61.872673   26.309105   50.598839
H   46.031921   93.098885   42.517902
H   99.769791    7.318388   23.844788
H   10.568334   46.485832   27.534615
H   56.872452    8.665548   85.848007
H   81.303429   48.257019   30.854313
H   31.841946    8.875707   22.593269
H   72.455017   48.001308   27.831337
H   22.946493   81.793716   71.021881
H   10.658528   68.958054   93.485504
H   83.496864   68.771484   92.528625
H   29.113260   64.858002   57.286121
H   96.768364   95.796318   39.338982
H   89.778534   19.774067    6.433937
H   37.882896    1.089922    3.223670
H    4.006927   93.536079   49.276344
H   30.835718   97.514648   91.292999
H   64.593712   58.057800    2.671910
H   65.156281   86.978455   19.622929
H   83.720184   73.062294   34.625526
H   21.064220   35.627247    8.566368
H    1.217295   35.708263   77.247894
H   42.869408   25.333620   62.317684
H   17.108862   96.819527   78.733284
H   64.916183   26.528545   88.251320
H   99.268379   38.955517   73.001701
H   56.375519   38.930286   93.785187
H    7.892365   80.574448   76.317116
H   13.329566   76.607071   72.192528
H   31.479319   90.034607    2.117990
H   91.252441   36.426193   10.580842
H   10.915431   38.759407   67.129921
H   37.183674   91.169807   86.081680
H   98.288322   42.865936   59.960114
H   35.761581    8.345404   44.182335
H   58.576279   18.118834   87.640755
H   27.984537    5.288506    1.455094
H   26.924492   41.149288   38.165691
H   45.140690   68.368301   27.998175
H    3.270943   76.286964    2.414311
H   26.437180   13.971601   61.109798
H   70.870064    5.621448   30.014828
H    3.432060   99.946320   11.361912
H   69.059654   52.210064   52.049942
H   25.064474   58.452087   76.695961
H   72.525452   58.222286   29.752548
H   47.170673   51.401890   20.120363
