100
TIME:    8.101, STEP:  8101
H   69.484612   79.120903   91.729324
H   76.746872   43.846012   88.899185
H   19.019693   56.722168   28.246349
H   82.836334   98.888237   96.118721
H   22.607130   22.088123   46.053299
H    2.391173   92.431679   81.015541
H   28.397163    8.355266   23.961918
H   83.163666   89.441582   64.387917
H   54.489830    7.414624   90.157959
H   53.492805   32.703358   24.906940
H   46.719742   92.204071   59.419388
H   46.649788   29.751675   16.291058
H   27.175957   71.642395   20.052210
H   53.967934   80.106331   73.730415
H   79.000740   46.411575   61.322479
H   75.799362    3.185816   60.587189
H   72.672768   17.789577   10.854344
H   74.300720    0.644492   18.705811
H   71.438431   18.199390   90.154495
H   74.259720   33.780186   67.886360
H   83.551903   49.737736   37.368732
H   39.031101   54.838181   29.403275
H   77.582176   28.738844    0.570231
H   66.359146   33.739716    5.422628
H   39.845406   43.710907   96.367653
H    9.410503   87.285995   28.541935
H   63.521744    5.727030   60.707706
H   49.002419   34.566990   34.548004
H   87.319038   84.078262   74.233635
H   11.621872   90.339432   27.394508
H   34.880489   48.487640   68.453743
H   77.259422   28.689854   49.313911
H   40.980556   75.774803   27.599012
H   20.388447   31.314308   30.468233
H   79.344109   46.310631   17.922857
H   76.843903   19.934237   93.957924
H   56.789631    7.858446   46.792385
H   29.163570   10.698265   94.107048
H    3.124762    4.911291   59.265175
H    0.170185   53.795418   75.405090
H   81.605835   34.147217   33.200527
H   17.505928   73.371231   93.531120
H   81.004425   12.083323   86.617134
H   62.066448   48.617744   72.807526
H   53.953377   12.269667   49.334686
H   73.554985   17.427883   16.072489
H    5.026789   65.398079    3.226540
H   56.682064   78.807663   69.821526
H    1.833014   61.524223   21.321274
H   95.822510   54.035839   17.110172
H   42.945339   87.543968   38.823715
H   98.836670   12.025812   42.256775
H   76.909386   68.981079   32.378731
H   89.092255   75.031158   89.291702
H   95.780800   68.538651   69.249985
H    3.685545    4.012258   16.849640
H    9.820973   55.795555   26.460075
H   22.838530   11.847658    4.891080
H   29.182949   81.064766   89.572403
H   24.436714   50.458706   33.198875
H   70.717850    1.838399   82.778145
H   11.397621   52.539108   28.809383
H   24.037048   54.485504   77.960571
H   99.320427   85.892624    7.195304
H   53.866890   13.830564   49.980011
H    3.691667   39.548546   25.178699
H   37.610504   28.435524   58.178631
H   20.774452   80.841911   53.477249
H   60.656563   67.700142   52.153130
H   94.551842   55.535175   84.661514
H   64.789253   44.210030   64.975929
H    6.170199   82.614647   49.845577
H   78.790588   17.603804   54.042133
H   51.871708   36.707577   21.819471
H   52.704178   40.243496   15.524767
H   17.168245   26.770531   50.834175
H    2.526162   24.638199   34.413658
H   12.578666   21.018780   61.829159
H   49.984459   29.723530    8.063446
H    2.245177   67.719566   23.012703
H   69.405632   13.090920   64.168625
H   49.188408   97.006744    9.274853
H   30.280409   42.595493    1.440622
H    7.485688    5.379030   23.516315
H   57.878998   42.154057   62.451912
H   64.850449    6.616275    4.341157
H    8.202332   14.343744    9.830284
H   86.315392   56.824875   11.583214
H   23.803673   43.121132   61.935066
H   50.102039   75.979874   13.808861
H   55.549000   10.862676    4.540271
H   77.690865    4.752341   87.883766
H    4.743287   70.589806   45.467346
H   30.196463    4.651165   73.036781
H   16.529812   24.091217    2.239617
H   63.030975   75.832520   49.021812
H   19.583109   32.578316   71.292702
H   22.640512   87.297066   16.253401
H   22.799889   71.784279   66.494713
H   42.395016   70.746719   17.344707
