200
TIME:    0.668, STEP:   668
H   22.622679   61.054554   22.658112
H   31.779066   39.126472    7.272521
H    9.167186   87.871643   66.429497
H   32.269760   81.976326   33.307602
H   10.665957   94.576843   47.504890
H   75.695007   41.198402   52.881187
H    9.560180   55.000450   57.935635
H   12.479867    7.367812    9.880311
H    4.809816   81.089752   37.278362
H   95.794815   68.903648   79.190437
H   27.111673    3.737053    6.486870
H   32.547638   53.446777   33.135506
H   21.678905    1.212410   43.750053
H   84.174294   55.012691   62.889950
H   98.958023   75.239357   41.925507
H   16.825001    8.331676   45.090141
H    4.341416   27.763855   94.651772
H   26.399132    3.742422   35.900600
H   79.265747   14.206915   48.784386
H   91.417915   73.826988   20.879322
H   63.221519   98.123642    6.232065
H   80.500648   65.173927   54.081253
H   82.188591   59.429550   38.866585
H   17.673744   91.961311   90.244011
H   21.849564   29.917501   30.138165
H   18.306799   81.330856   92.820717
H    7.184216   67.384712   66.290421
H    4.332940   87.785347    1.857465
H   29.095127   43.520454   35.832184
H   73.708572   32.229931   83.820663
H   12.802704   69.330482   16.718090
H   24.143017   73.537582    4.140713
H   16.781837   18.195040   78.407028
H   82.261330   64.044868   45.771286
H   27.449011   72.115707   30.963243
H   19.080528   40.163361   84.384346
H   98.548828   65.191238   89.168068
H   11.744508   55.826588   95.923889
H   37.229889   31.074600   53.945320
H   85.978165   37.928448   46.977631
H   80.631660   85.230057   15.730636
H   34.642654   34.131989   27.139923
H   68.995560   77.949867   66.220894
H   36.327774   84.021309   34.055515
H   43.400833   89.353409   59.809166
H   35.036797    2.699863   47.342678
H   88.039642    5.243355    5.562858
H   79.695992   65.544075   32.261185
H    3.632628   12.510246   61.474911
H   46.801128   19.732977   87.605560
H   68.026779   65.078850   10.906835
H    4.777206   43.064678   72.743568
H   63.720215   82.181267   13.522127
H   16.036652   91.215744   88.041267
H   59.082565   66.866348   76.931404
H   99.819023   61.805801   92.663239
H    4.209027   18.365089   45.063465
H   72.084702   68.529007   97.578239
H   19.149935   82.745407   17.478092
H   33.204288   93.585854   59.082214
H   49.033363    7.026011   29.731579
H   97.628777   17.438784   52.347237
H   83.238602   34.072601   70.445404
H   34.496269   65.762962   13.223549
H   78.228531   82.459625   35.431385
H   21.950254   33.189201   40.556534
H   70.187843   14.133941   94.677773
H   94.944633   92.423012   95.745216
H   31.746508   11.637053   56.562538
H   42.773235   49.089748   50.959736
H   58.277405   83.994751   84.729767
H   20.111652   12.571904   41.768841
H   91.077774   33.062450   85.164001
H   21.809118   99.556969   73.032875
H   84.356583    7.799902   47.488174
H   64.131966    3.966323   60.080673
H   93.618561   45.883621   66.091560
H   10.702770   13.763586   33.332100
H   14.784512   48.761715   25.459057
H   61.826412   88.279953   73.964020
H   61.533413   22.868414   94.779449
H   45.456249   60.893085   74.625908
H    9.329879   18.361101   77.756981
H   10.717012   75.855019    7.800919
H   23.667053    3.849762   45.652939
H   36.725128   70.799286   18.873230
H   55.037697    3.675966    2.752559
H   71.772224    2.614666   27.585415
H   78.786087   73.098953   78.712158
H   21.300407    5.231600   50.156826
H   23.301582   38.587574   78.850769
H   81.074135   92.290649    7.706676
H   67.591873   12.035049   83.540161
H   40.835590   79.056969   80.856773
H   35.969749   51.136681   85.765495
H   51.547585   37.278496    8.938074
H   85.111443   99.475426   16.762016
H   95.129051   35.089096   52.645908
H   27.319725   65.490585   54.398018
H   74.646233    4.881918   27.354898
H   28.962065   92.260132   89.093727
H    6.487278   83.131821   63.503731
H   32.051437   21.528231   36.483593
H   42.441673   68.729706    7.159038
H   24.771379   21.848114   38.963772
H    4.367421    5.818117   23.852427
H   85.933052   35.411190   54.267349
H   62.229176   50.707405    2.191559
H   83.673546   34.687080   19.828571
H   18.115618   22.092905    7.632006
H   52.825691   92.347511    1.096980
H    3.179449   74.108093   95.386375
H   49.660400   85.241302   84.625771
H   61.774345   10.170197   63.917007
H   49.567482   99.791016   11.765670
H   96.571663   93.277107   98.242584
H   14.977778   14.469378   89.169601
H   38.599636   48.063084   25.423210
H   35.116432   73.782547   62.386646
H   82.077583   55.217098   65.308975
H   45.021614   24.603580   73.495018
H   99.821838   17.341022   60.777840
H   42.555000    3.771266   36.726070
H   97.771545   51.917305   99.122429
H   64.109550   98.355125   78.657707
H   63.402706   74.062317   17.267523
H   84.748024   51.188339   54.525406
H   66.066826   90.926781   38.617352
H   97.734779   36.991070   75.136574
H   88.490158   22.120728   73.793205
H   65.886086   69.903717   19.767635
H   65.271873   90.296371   19.420277
H   91.040169    3.417933    0.559083
H   79.933960   23.976452   54.974743
H   25.569614   93.631195   36.749496
H   50.958633    1.077552   77.376152
H   69.601303   87.655159   76.645271
H   94.869041   50.857380   76.435768
H   57.500427   50.319077   71.448860
H   43.679787   88.563194   83.564972
H   71.806717   50.482254   28.735535
H   37.534988   54.015205   56.224262
H   41.246819   64.638588   84.947998
H   38.101204   11.034817   85.216835
H   60.419949   55.572464   63.063969
H   61.622124   69.349411    9.347740
H   54.853935   94.903465   44.217335
H   30.965645   57.486900   66.369408
H   76.627167   46.922554   93.689667
H   23.105362   93.347557   73.980240
H   61.134476   68.578690   48.113102
H   51.804108   95.266747   34.739777
H   96.058655   15.834957   88.440231
H   21.223839   10.966909   65.375954
H   30.584354   65.182327   68.496117
H   76.207695   44.590153   67.229004
H   63.791363   73.719406   85.823654
H   52.131104   29.792801   19.751301
H   92.792961    0.121653   86.732094
H   58.881199   39.480560   94.665939
H   58.160126   67.021233   72.036034
H   23.508608   20.838291   31.836136
H   83.642632   15.909222   37.054089
H   26.985121   32.753010   52.887527
H   54.856133   36.611145   14.029947
H   19.287743   50.821026   59.962177
H   67.529869   90.644356   56.758945
H   24.006100   50.405663   65.711075
H   99.888603   26.778341   35.846298
H   46.004829    7.229844   85.583649
H   71.188477   10.723731   35.940155
H   31.377260   49.549751   58.772430
H   45.942520   59.063175   78.381302
H   65.955612   64.300682   84.169296
H   51.545166   91.816879   79.106880
H   14.121579   49.972740   23.697367
H   31.020908   66.291534    4.811630
H    5.523293    9.609032   70.352982
H   64.656013   11.429761   64.129013
H   65.940880   59.046227   92.422691
H   73.603760    0.526940   31.768070
H   27.860518   30.628506   85.241013
H   45.928402   89.716064   14.546310
H   60.801666   26.012341   92.935951
H   91.057785   69.770691   76.633530
H    8.220440   39.835281   86.096291
H   46.255188   97.193459    8.748610
H   69.858948   85.353951   40.502861
H   94.223427   63.082020   71.434952
H   57.396606   55.945095   71.110489
H   68.266113   16.864021   76.245064
H   44.144264   96.560486   19.172834
H   13.607303   27.706299   67.611122
H   27.626322   80.612335   41.938786
H   70.206924   35.138165   20.416252
H   76.373062   11.433674   23.702564
H   12.306243   97.229881   17.912825
H   16.470839   88.899864   34.896233
H    6.205832   12.809473   58.875404
H    3.543746   20.492168   91.802536
