100
TIME:    3.689, STEP:  3689
H   67.850250   83.721283   95.768631
H   98.653267    4.755693   10.700796
H   43.165298   39.305000   80.038811
H   82.095795   80.662956   37.956394
H   62.129013   68.447121   65.680664
H   70.818733   97.211525   44.080246
H   59.628330   10.435814   78.937538
H   29.938171    7.747947   69.483009
H   62.945274   31.611176   67.878807
H   74.030281   69.351936   52.148720
H   57.113235   14.677221   84.406120
H   15.040764    8.601122   30.341497
H    8.605660   38.517868   58.471672
H   72.423347   93.705330   37.974934
H   25.373493   40.510696   73.446663
H   53.198044   89.075554   26.822371
H   27.459816   25.969631    9.212576
H   79.971764   15.304774   71.652527
H    2.726066   33.111618   57.711620
H   93.131859   27.476286   67.496910
H   45.366226   88.965515   57.115112
H   16.048370   48.981186    5.125841
H   36.490562   64.619820   26.804237
H   76.293419   80.925446   33.096180
H   97.645050   93.602631   63.783913
H   29.742060   17.690111   43.400627
H   43.972439   89.129654   73.167213
H   21.275038   28.629745   88.709984
H   91.384186   83.787094   82.791634
H   42.445312   99.536583   76.653656
H   61.242649   52.854733   17.517006
H   98.683052   50.586693   57.754845
H   30.205278   98.578011   30.131208
H   33.971146   35.647835   16.339432
H   89.072021   80.059929   49.361786
H   93.304176   74.276337    7.953040
H   33.622368   69.436508   99.144218
H   11.519897   91.438744   82.763817
H   89.358307    1.041861   86.820992
H   15.731216   66.832306   28.276743
H   83.135040   82.761993   29.256941
H    0.074814   77.423386   76.113770
H   43.016354   85.621780   67.932945
H   43.791031   74.596924   41.424736
H   36.662342   86.342316   71.788391
H   30.494480   33.278828   98.146858
H   70.554977   25.458549   60.876587
H   56.436428   33.365463   96.832375
H   72.861374   26.926689   97.317444
H    3.246829   86.886864   25.651066
H   43.263172   13.494278   92.313049
H   84.411591   21.427277   31.886028
H   85.396751   43.398804   88.618080
H   91.265617   47.018265   94.602631
H   47.069870   81.881042   31.722929
H   98.181992    8.653845   67.044540
H   30.118425   83.102028    6.842032
H   51.365471   28.507351   18.535069
H   81.220177   94.637421   28.276245
H   15.583591   11.336218   58.686653
H   92.405251    7.017470   26.772549
H   67.984795   93.605392   28.438629
H   24.506109   55.552544   80.504662
H   96.356133   61.861748   26.983700
H   78.746071   66.210732   39.109959
H   74.724098   58.881691   64.306274
H   91.592758   75.899445   45.167706
H   25.541466   28.515593   42.558132
H   40.761993   84.718323   28.864780
H    5.125959   33.688271   93.965149
H    4.889248   44.400566   17.896015
H   69.791367   29.094559   26.712658
H   66.461792   35.832920   67.164787
H   49.003765   15.931786   83.966545
H   40.032856   33.897785   81.048988
H   12.866069   44.003319   47.706135
H    1.891821    6.808224   56.291096
H    5.296259    9.505430   18.168833
H   38.413277   42.682972   58.843529
H   18.609962    8.042377    3.110634
H   83.065811   67.446060    0.472213
H   18.114006   68.319534   78.305420
H   51.202045   68.833588   81.258972
H    3.947962   27.834965   26.483879
H   72.705505   18.134830   90.145325
H   66.392578   44.558060   97.958420
H   13.534704   35.132576   99.448959
H   15.337141    9.943977   57.378494
H   32.242050   88.774940   98.019539
H   40.181446   57.501923   56.088524
H   74.991669   72.625862   11.366738
H   51.243759   72.937065    3.818298
H   21.926006   38.205711    4.280512
H    3.782995   36.997704   75.548134
H   92.808800   19.291142    0.857126
H   98.617828   50.056343   76.907204
H   69.786926   79.384834   25.031740
H   20.407576   47.647308   97.008171
H   32.977837   52.752125   36.044670
H   68.347679   83.967384   42.366936
