100
TIME:    7.306, STEP:  7306
H   23.247152   52.025551   92.457169
H   98.703506    0.764108   38.771923
H    5.354271   99.527412   37.579731
H   82.702896   31.644161   39.696079
H   29.730906   58.365459   67.609619
H   14.720551   93.292961    2.283439
H   70.061325   54.674786   61.791866
H   45.649101   20.664120   37.381340
H   74.032448   83.851212   40.200275
H   75.206825   21.288332   93.777199
H   20.668701   60.215321   35.998764
H   76.992233   89.902802   72.880104
H   77.870308   19.763035   99.056786
H   93.332176   82.556740   13.229336
H   69.344673   17.424889   99.558136
H    7.764460   72.719482   26.579340
H   36.602119   65.204529   38.482357
H   57.303165   39.328949   46.262245
H   59.055370   84.848862   48.269337
H   95.682602   50.660107   13.759012
H   30.728317   28.881920   58.943249
H   62.813675   53.782806   97.104919
H   88.196571   35.202995   23.317369
H   40.225212   24.229219   64.467819
H   68.279854    6.756958   90.496376
H   13.158901   10.721176    3.355118
H   32.074024   38.775230   44.931683
H   16.082943   97.459099    8.269053
H   70.032738   11.949661   11.813856
H   81.137955   10.016254   64.194603
H    3.591408   77.198334   31.351540
H   27.062435   50.652554   22.911018
H   84.981941   33.940117   55.979134
H   86.797310    4.171456   63.961060
H   99.129341    6.503292   69.555771
H    7.735982   57.666168   96.456856
H   80.539139   36.974731   84.149628
H   62.019936   25.248531   38.005196
H   36.683964   22.230951   36.306290
H   75.049324   28.219801   12.854978
H   35.937729    6.871220   14.470795
H   84.503990   70.253632   52.943325
H   74.162689    7.314426   29.193897
H   12.831627   35.273460   95.077751
H   22.914768   43.633869   81.304024
H   83.817589    2.267250   12.842680
H   98.812790   22.163441   95.594231
H   56.633541   70.619415   20.631390
H   78.590950   27.367184   53.036064
H   79.130615   41.935429   72.697517
H   42.999928   64.296402   30.441940
H   60.200268   85.796280   94.443207
H   60.422398   64.371399   78.548317
H    7.504234   87.998917   54.209610
H   59.080429   98.867302   62.491810
H    2.695373    4.848520   43.913315
H   59.419224   78.734779   50.848885
H   82.036057   86.925606   25.369974
H   66.484184   47.471767   50.603737
H   76.897575   89.351257   55.810570
H   20.568686   38.808716   44.762215
H   39.613716   59.938858   64.782684
H   70.065956    8.734414   32.476105
H   44.729969   81.561951   28.781361
H   22.309708   77.326782   75.944817
H   52.528259   79.070488   78.171585
H    1.393978    0.950948   19.796015
H   75.690300   35.375908   15.471648
H   21.031509   24.823761    2.012095
H   78.405830   15.606836   86.347687
H   90.033318   98.301483   74.510689
H   71.635399    9.011636   91.573372
H   30.626825   56.926701   74.424866
H   69.372154   87.022583   69.055908
H   14.408834   39.072880   55.247501
H   98.373238   75.819725    4.328901
H   30.323864   93.447212   20.314188
H   75.229492   72.999794   17.921953
H   11.863450   32.058697   99.191704
H   41.231491   11.026820   91.502846
H   53.841896    4.866281   16.652527
H   89.533119   91.851181   75.783730
H   79.996391   29.300207   25.729523
H   52.789852   37.349728   96.127525
H   96.588181   91.887413   39.517540
H   83.143600   77.416901   49.134079
H   55.106007   72.146751   71.921608
H   73.529594   20.440123   19.826050
H    7.302870   87.386192   68.437141
H   20.389940    8.685955   85.388550
H   23.014362   67.933174   87.751144
H   18.868914   44.960098   72.732475
H   53.782139   46.736385   83.988777
H   53.362480   56.419395   19.431116
H   30.276970   95.302048   83.970917
H   97.367203    7.226384   90.084358
H   82.686607   86.956207   17.014050
H   24.175051   47.959560   32.214378
H   60.672050   68.351280   33.083324
H   93.015526   91.150620   93.929749
