100
TIME:    3.304, STEP:  3304
H   93.886627   19.027580   96.121109
H    9.363108   83.882706   86.415359
H   36.547523   11.607181   84.556404
H   82.031174   96.524467   59.061016
H   65.577423   37.587673   76.119888
H   76.787361   97.628624    5.951748
H   79.807060   84.439568   48.830040
H   60.198410   74.439346    4.830986
H   72.409309   68.627243   92.111671
H   84.551750   63.823906   37.071472
H   92.925003   99.186356   21.491812
H   29.736160   89.303268   57.746574
H   33.095253   61.810791   96.738609
H   91.486534   94.892006    8.675198
H   20.689941   74.900803   91.951759
H   68.677704   22.749298   58.780617
H   58.419136    0.505604   74.164505
H   71.747276   34.027260   84.999695
H   96.728874   16.959314   37.429447
H    3.505463   35.651653   41.284294
H   68.212677   27.293663   67.564148
H   79.138046   48.470093   37.912140
H   41.630867   67.750999   37.819870
H   12.064148   76.307983   61.690960
H   11.414542   24.135429   60.940590
H   31.508856   29.161802   79.486824
H   77.171768    5.132782   65.530190
H   53.759312   10.659241   75.985527
H   83.012833   48.856522    0.991181
H   27.682789    9.065917   46.046814
H   46.089031   18.331865   47.976982
H   74.373817   61.222717   93.396248
H    3.086151   26.745583   95.447365
H   17.702995   70.930885   32.557877
H   98.641800    9.163096   25.919060
H   59.824642   44.031780    9.282163
H   96.695900   83.535629   68.807610
H   27.431549   98.482430   55.594547
H    5.608387    9.429369   24.129904
H   51.993053    2.873357   97.985756
H    9.447104   69.549942   20.186506
H   34.676476   60.145432   58.025772
H   39.700123   83.313049   40.124950
H   68.376373   68.146576    3.781921
H   70.057228    1.533885   38.843441
H   35.461483   25.935535   96.584206
H   67.547165    4.519948   57.178505
H   56.415867   29.401049   73.010735
H   61.606201   58.811264   12.675509
H   95.173912   81.029854   52.577450
H   43.292545   50.663818   88.253677
H   65.700882   57.153427   57.161640
H   77.413124   41.166443   10.977684
H    0.183253   53.301186   77.613190
H   77.723709   48.138527   28.449289
H   97.700272    9.059195   80.150848
H    5.711950   94.210960   70.225319
H   80.033684   64.865601   28.452919
H   50.855469   78.370560   57.834278
H   40.988457   81.744568   69.636971
H   68.119514   24.921516   56.788990
H   81.649193   97.188919   45.859856
H   98.368462   81.823906    6.905289
H   69.920280   59.767441   37.437611
H   63.466045   96.958565    3.255891
H   98.375374   78.021248   41.542068
H   22.482586   62.587833   26.579935
H   52.135933    6.496023   24.152906
H   21.572502   12.381950   53.012463
H   97.325500   14.323818   94.775848
H   17.115162   70.595558   22.514946
H    1.537790   41.871887   98.524750
H   91.564102   54.875546   77.034172
H   57.480862   40.295860    6.842394
H   21.471117   33.348507   51.863804
H    3.763892   19.327673   73.611420
H   66.937660   40.177971   49.482395
H   87.208252   34.679859   96.906479
H   19.952238   43.813839   54.546234
H   37.491035   29.010414   36.278580
H   75.534531   63.463055   77.461288
H   89.226974   65.805191   10.498873
H   26.842878   62.406738   44.589512
H   77.459457   94.889130   61.646500
H   91.451462   42.217892   27.466576
H   75.251526   30.415043   71.222961
H   87.821404   63.125206   81.090729
H    9.140871   40.768036   61.382057
H   24.251125   10.211096    1.168725
H   74.221130   73.341141   42.327194
H   59.235901   51.837254    3.236228
H   22.755198   43.984840   96.481377
H   97.247528   26.653242   74.507835
H   66.572823   13.644253   49.589760
H   99.464760   53.778179   92.010002
H   66.818436   65.259895   96.792839
H    0.346760   57.290340   47.173698
H   18.994726   44.369263    3.169552
H   51.318443   51.092541   68.293083
H   44.434452   93.848518   79.455215
