100
TIME:    0.211, STEP:   211
H    3.053746    2.671608   98.952835
H   95.400841   16.184826   91.310364
H   83.389709   89.084267   20.862381
H   81.512024   23.957315   28.597284
H   93.281143   89.670105   59.984108
H   24.744411    0.984004   99.641045
H   41.911732   75.586006    6.953042
H    3.302114    6.856794   88.820580
H   48.441216   66.006592   86.805443
H   69.074303   19.416348   15.951571
H   80.628326   74.732605   19.425220
H   47.788303   34.266869   77.910011
H   29.841026   48.941650    4.157642
H   44.634495    4.426705   73.297935
H   83.069176   51.174637   40.630024
H   93.039719   93.281441   15.524799
H    7.102252   95.950874   92.566048
H    5.653659   84.439621   92.231247
H   48.549904   87.204697   74.478073
H   86.937813    1.107962   30.582865
H   51.755508   35.211838   51.514824
H   82.579811   44.378433    1.288749
H   82.926872   92.906166   26.313755
H   99.437317   39.212376   91.403870
H   22.036535   69.440117   38.116470
H   45.689732   21.324123   69.394859
H   43.884182   33.705761    4.153305
H   14.737488   66.287949   73.750168
H   15.759316   68.235558   47.197815
H    9.084603   85.617447    0.162980
H   24.401888   40.963799   92.715233
H   79.080078   46.680817   79.730766
H   85.220520   53.044273   16.805502
H   87.017235   54.385773   62.862160
H   75.527092   42.970261   37.576630
H   90.900475    1.060647   19.918310
H    0.037071   96.807961   25.091137
H   55.267754   55.092335   37.330814
H   41.234829   76.003761   21.903099
H   43.319447   92.429893   54.635864
H   20.822445   63.418423   47.310192
H   12.657700   21.326693   12.713243
H   13.058953   64.765244   16.714157
H   65.885681   16.307848    1.362397
H   38.352814   23.566856   74.163269
H   75.256630   67.170708   84.145729
H   38.308033   37.123272   29.426214
H   56.250683   97.554871   81.633438
H   71.195610   14.974628   36.057060
H   30.315130   33.960949   68.906265
H   43.527554   49.273376   55.643238
H   15.387235   44.159882   60.211456
H   13.256121   23.232178   90.615425
H   71.799759    3.759442   41.126728
H   23.961624   77.002670    2.196596
H   93.830246   12.310368   85.443863
H    9.629021   83.458519   76.055260
H   10.347960   56.960304    8.119949
H    6.918846   47.684189   95.284668
H   45.095116   44.006439   57.606644
H   73.010666   68.756943   97.945190
H   91.422333   25.981400   85.807663
H   88.544914   92.764549   19.082733
H   57.529259   42.942268   21.411772
H   40.696976   43.992184   15.210855
H   88.383400   31.783710   58.661831
H   70.639641   55.655773   77.249191
H   65.790550   29.604988   76.289619
H   67.420097   34.625206   46.999622
H   34.661011   58.757652    1.287064
H   15.332270   81.047951   59.616795
H   56.568340   44.522881   72.070900
H   93.233765    7.870647   56.339199
H   25.546684   36.027119   90.668251
H   72.343796   28.943926   17.393112
H   30.646414   21.095301   81.731674
H   86.112518    8.256031   94.766174
H   41.893494   36.923862   26.092583
H   71.667671   52.882786   20.041180
H   89.177628   97.462364    2.743401
H   15.010981   31.464354   92.599899
H   57.155331   45.605545   69.137024
H   31.146774   10.779187   49.996521
H   64.685944   30.217136   44.157661
H   42.056145   35.685898   27.298260
H   46.439091   16.802420   56.436344
H   81.246925   88.011497   33.604473
H   59.351852   88.400963   93.545250
H   60.061958   82.424263   26.474590
H   47.680183    0.605360   31.754629
H   32.657566   84.824692   37.917675
H   93.898491   11.375597   37.544876
H   98.822655   33.953621   35.238609
H   67.622566   26.030916   41.045177
H   52.943836   30.829548   20.935516
H   11.349365   87.399345   56.550529
H   45.853935   79.789314   25.054161
H    7.639976   18.034210   52.659309
H   98.660667   37.759830   27.377453
H   52.345318   73.283730   77.363632
