100
TIME:    5.053, STEP:  5053
H   75.608803   58.635475   94.519852
H   60.923561   78.678970   96.713074
H   66.612289   37.436569   64.033623
H   82.324738   24.467190   63.192520
H   49.911789   77.777740   28.696449
H   49.665684   95.733803   79.162071
H   88.142509    2.539430   85.604187
H   22.730461   25.750828   44.244625
H   29.415550    0.467936   82.018929
H   36.754219   88.936958    5.558140
H   30.237274   69.561005   53.018421
H   62.984299   76.971504   33.250450
H   21.624619   56.025597   22.930420
H    4.886863   89.501106   41.776070
H   41.963524   18.673147    7.878438
H   98.352921   69.775162   13.597780
H   17.775063   16.188122   33.382874
H    9.122941   48.955372   24.362608
H   23.970600   90.332138   29.573786
H   56.378281   98.509560   60.364357
H   64.424538   53.175896   20.097538
H   46.816376   50.791916   88.968674
H   18.279198   53.526497   87.777374
H   49.561863   97.276825   31.792995
H   48.859406   85.431366   73.857399
H   23.511896   77.278854   15.257082
H   26.352667   32.429279    0.224172
H    6.184827   92.296677   33.797791
H   21.044014    7.539917   18.314102
H   94.748352   65.777916   85.087868
H   14.922013   75.167297    9.601662
H   84.806801   12.904563   31.482506
H   26.283447   98.781303   53.011101
H   91.602310   10.645406   58.876106
H   55.167664   76.951981   32.420540
H   11.886491   81.201118    3.540598
H   64.446503   19.484032    6.621974
H   55.140759   66.483971   79.017296
H   31.783756   71.321098   54.638901
H   87.257210   39.138359   35.593700
H   89.915344   29.564016   61.392193
H   77.485619   38.639168   40.192348
H   54.765285   93.801285   66.456245
H   56.691364   97.457214   74.791183
H   18.345739   32.526016   88.509056
H   12.896639   59.295063    3.688823
H   81.211227   99.636497   73.970436
H   56.509274   47.414230   81.228951
H   12.735985   13.960819   42.908257
H   31.854282    7.641241   30.250732
H   43.159107   81.808746    6.693617
H   50.698448   94.858505   42.342422
H   13.685649   51.307739    9.398157
H   59.672928   24.758774   54.791039
H   38.467987    1.425184   43.326046
H   99.888657    7.218457   20.610764
H   16.590797   43.744667   36.569878
H   49.798477   99.693810   83.401108
H   88.796333   52.270920   23.561089
H   25.573215   16.177990   19.891243
H   78.447601   43.583698   20.424683
H   19.575121   80.909470   66.723862
H   17.108095   62.475510   86.971069
H   90.019997   69.288986   89.949814
H   32.884079   57.270229   66.132942
H   90.932335   91.073570   44.956123
H   82.156616   23.058464   11.020756
H   31.320625    6.523263    7.765220
H    8.741892   86.709984   43.317825
H   32.760262    2.292704   91.092957
H   61.577126   51.594101    1.532229
H   57.323341   83.825607   26.578400
H   77.526108   68.362740   32.189499
H   18.973194   29.614948    2.921965
H    5.797531   35.843800   84.449432
H   45.115540   31.422239   55.925739
H   25.734255   88.585884   80.413353
H   69.379456   20.316711   93.497368
H    3.823935   38.676472   74.061348
H   51.716553   33.755993   85.600830
H    9.751282   81.557266   81.995140
H   20.457832   77.227493   64.248802
H   37.488571   91.623352   11.165393
H   97.788620   44.555466    1.904223
H    6.289590   32.816833   57.920708
H   34.996975   94.658958   92.678741
H    4.633184   35.958664   64.490067
H   37.290894    0.739629   43.194443
H   60.547714   12.829552   86.863777
H   19.585279    1.379700    4.851015
H   30.812279   46.278645   40.171917
H   52.169727   75.513306   29.807981
H    9.360505   79.137306    9.760822
H   35.619576   19.734064   67.515190
H   69.227684   97.111961   32.197575
H   11.278716   96.194794    6.454885
H   61.518913   57.661953   46.586456
H   25.413099   59.260956   75.175346
H   67.999847   58.631794   21.795052
H   53.071209   48.964413   10.968671
