100
TIME:    2.699, STEP:  2699
H   34.799469   74.509300   96.675003
H   26.192711   51.081131   48.252064
H   26.148161   68.080933   91.655479
H   81.929626   21.451681   92.221497
H   70.996353   89.094269   92.524384
H   86.166634   98.284065   46.037151
H   11.516376   43.587578    1.518179
H    7.750221   22.100054   60.381710
H   87.281364   26.795654   30.194199
H    1.085333   55.137001   13.378657
H   49.200623   74.842712   79.767746
H   52.828926   58.977570    0.811798
H   71.577950   98.413956   56.869652
H   21.442360   96.756783   62.636395
H   13.330074   28.941416   21.033373
H   93.002884   75.664642    9.000666
H    7.069596   60.487206   19.088968
H   58.821236   63.448265    5.974476
H   87.303444   91.578827    5.557415
H   19.803795   48.497379    0.093147
H    4.114198   87.523224   83.987106
H   21.136108   47.666946   89.433517
H   49.708488   72.671425   55.129059
H   68.275162   69.051971    6.621813
H   33.051384   72.117279   56.475304
H   34.283352   47.186802   36.194427
H   29.340672   30.282312   53.525127
H    4.808624   82.419914   55.988102
H   69.857849   93.966652   29.588385
H    4.485595   24.040054   97.951805
H   22.277147   64.079056   95.842659
H   36.173592   77.940315   49.404106
H   60.472607   71.010674   40.944191
H   92.139900   26.375412   58.046234
H   13.681319   54.896454   89.079109
H    7.221658   96.504875   11.361959
H   38.668282    5.691938   21.135801
H   52.435249    9.554676   12.903080
H   31.147102   22.609739   82.759277
H    8.978159   59.512718   50.386471
H   50.793232   48.791531    5.933066
H   89.050407   32.990776   29.601973
H   34.488903   79.685043   96.425529
H    7.010168   58.007584   44.627693
H   22.537695   25.402775   87.071388
H   43.266773   14.396076   94.128609
H   62.819454   71.618378   51.367233
H   56.383556   23.172049   35.576729
H   43.923134    8.918980   36.809753
H   82.489738   71.825981   94.893707
H   43.338703    9.072283   81.874664
H   36.298344   13.291782   96.876640
H   64.867424   37.658447   46.116264
H   14.192158   63.174347   50.915497
H   25.892754   95.113602   23.307508
H   96.943283    9.695431    0.746476
H   67.355309   11.668559   12.684893
H   25.083344   22.000420   44.036331
H    3.142107   52.808346    4.279119
H   80.912323   35.242306   86.844612
H   29.956091   53.054722    3.961295
H    3.121483    2.820740   73.234512
H   57.305210   23.101851   48.396408
H   28.374468   56.476387   53.865185
H   39.450123   45.279675   46.914108
H   35.541267    8.097572    5.771109
H   71.022621   41.673717   97.369278
H   93.927238   71.895752   95.230408
H   91.419395   55.853401   90.955544
H   85.065979   83.895088   96.049805
H   36.327843   11.759475   29.773266
H   51.421700   61.950546   54.230675
H   31.012316   84.802879   92.543205
H   70.795250   78.582031   42.798958
H   92.301537   32.485355    6.000093
H   89.463203   80.553825   14.321505
H   12.006308   92.615372   38.783009
H   58.784252   74.240547   63.497364
H   90.940079   45.590916   47.793343
H   67.161293   61.962284   88.400009
H   63.699543   57.204052   41.301243
H   43.833305   61.854080   61.088844
H   88.566025   52.307404   86.966370
H   35.837444   43.118500   16.905945
H   20.910522   80.060745   86.114723
H   89.172729    8.192352   29.210094
H   47.414833    7.113647   52.242081
H   99.403732   89.206070   67.676064
H   11.694281   43.895790    6.118551
H   27.710358   98.229446   20.701042
H   34.476837   19.170444   90.459671
H   77.989746   98.487602   84.951149
H   58.456959    8.505432   27.717571
H    8.095818   76.947823    8.798768
H    9.925903    7.968949   78.107262
H   16.847961   89.151192   28.042282
H   48.368210   22.570415   81.967476
H   16.774534   39.218048   12.850004
H   80.139397   48.484623   18.968079
H    6.858322    9.377186   37.733673
