100
TIME:    2.287, STEP:  2287
H   62.661774   12.291718   97.052200
H   37.653221   28.741854   22.263174
H   19.066282   38.439514   96.489891
H   81.860474   38.426537   14.804482
H   74.686600   56.070652    3.695446
H   92.553841   98.730415    5.234661
H   33.109104   15.766142   69.299232
H   40.132607   86.456573   98.208611
H   97.409111   66.407654   56.129543
H   12.343100   49.221291   97.244743
H   87.523865   58.264896   19.454401
H   68.554001   38.326019   30.137392
H   97.786873   23.340889   97.820152
H   41.842445   98.026680   31.281872
H    8.318066   65.743164   40.838501
H    9.568886   11.699803   43.200943
H   40.196060   33.239967   81.579086
H   50.016823   83.483727   20.259251
H   80.884804   74.296906   83.850449
H   30.902824   57.245213   72.042244
H   28.562805   28.539272   95.171005
H   81.637268   47.120010   24.519073
H   55.209282   76.022194   66.916473
H    6.554466   64.110687   37.221718
H   47.787224    4.794678   53.435722
H   36.172482   59.461430   74.810875
H   64.869316   47.410053   45.349377
H   39.571472   63.189144   42.368137
H   60.899414   56.586403   49.064140
H   88.687584   34.236954   65.198509
H    6.066559   27.133379   28.441765
H   10.159729   89.325386   87.545036
H   31.450451    1.154973    3.827976
H   74.732246   64.132858   75.403595
H   23.923618   86.040375   63.989204
H   71.400192   64.141350   12.778020
H   99.152466   20.781401   88.672058
H   69.463570   17.095478   83.828606
H   48.539040   31.585463   22.684778
H   47.783260   98.081505   17.970190
H   78.949532   34.656063   96.225266
H   26.078674   14.498744   10.246805
H   30.940107   77.214401   66.664665
H   33.318199   51.101730    4.345092
H   58.274410   41.656834   51.816017
H   48.582111    6.537800   92.456367
H   59.597561   49.212860   47.409805
H   56.361553   18.930151   10.084480
H   31.881109   43.039616   53.246124
H   73.851921   65.558220   23.709072
H   43.370136   48.848640   77.530609
H   16.276690   51.523098   23.924374
H   56.321083   35.269531   70.045494
H   23.732105   69.895134   32.734589
H   58.693199   58.996525   19.812147
H   96.427780   10.128422   14.771927
H   41.237141   23.556847   73.500145
H   55.762054   60.908722   54.648148
H   70.646843   35.400692   35.908875
H    8.101162    3.573454   98.562874
H    3.965991   72.214546   36.083080
H   17.742592    6.656364   91.874344
H   29.358185   51.197258   76.661057
H    0.083012   54.235207   65.051933
H   23.096333   78.185638    8.544675
H   60.851204   28.579384   81.410637
H    4.077848   27.430872   77.478409
H   22.387215   48.333496   75.534424
H   70.887291   85.457100   16.795135
H   76.717346   63.174263   96.917358
H   49.410301   39.792534   34.716984
H   85.393433   75.623947   24.064737
H   57.875107    5.183308    3.105604
H   79.860558    4.653000   67.285347
H   72.435814   31.897829   74.767929
H   79.725227   54.148842   42.043316
H   74.600342   28.324640   31.496706
H   39.427746    1.178798   40.742939
H   71.181229   46.801090   43.194679
H   87.366493   84.399521   23.893990
H   55.636951   52.941723   16.677525
H   12.918924   59.163406   95.539528
H   62.501514   45.429840   47.725285
H    7.494442    7.863131   54.537659
H   40.972000    5.830175   26.053329
H   98.652954   93.059563    0.599338
H   19.898291   37.069397   32.596390
H   92.771347   22.191605   71.963539
H    3.143450   66.835670    9.489185
H   64.137985   15.180992    5.973542
H   17.616119   96.923553   81.758987
H   47.504223   67.507133   77.099159
H   32.021717   96.160080   95.843430
H   68.275826   51.956989   81.018791
H   17.050217   44.874557   68.639610
H   82.818390    5.420691   49.322495
H   81.071213   98.926933    5.661881
H   15.262219   35.710114   19.442722
H   99.766228   46.708652   53.478485
H   81.271744   19.959633   77.414825
