100
TIME:    5.649, STEP:  5649
H   35.303139    3.980062   93.974197
H   44.462990   10.973907   34.292767
H   76.861496   80.315903   57.035625
H   82.424774   99.910492   30.521572
H   44.573471   25.549685   12.538017
H   40.421391   95.088112   38.185688
H   56.904835   42.785679   32.212238
H   75.886032   77.311783   89.521248
H   14.764732   43.165131   44.502831
H   20.468050   97.494637   28.898443
H   74.798813   93.542511   95.609444
H   40.235062    6.845827   90.827461
H   83.592545   19.984371   63.708672
H   75.376274   87.664070   87.131264
H   49.211632   65.436020   79.230774
H   74.389603   17.646988   64.124725
H   69.848122   55.607098   87.639099
H   21.867903   19.957447    3.702772
H   33.253239   15.334811   60.971645
H   40.322403   85.850380    0.942839
H   29.057045   93.841064    3.921162
H    3.955475   51.583115   38.213730
H   10.320928   48.679268   70.725677
H   94.184273    4.406710   87.529388
H   27.542988   38.166122   78.259010
H   20.794992   59.662193   59.210365
H   74.959946    7.653887   12.050465
H   55.894848   20.115913   53.500458
H   34.003304   61.613407   90.141479
H   17.601170   51.027061   32.467392
H   38.378998   28.612583   62.448036
H   22.438389   96.437851   76.307838
H   68.266228   55.174431    6.703488
H   16.785057   56.025566   33.766914
H   40.353149   31.899118   68.711685
H   63.695484   27.882908    1.666168
H   21.611946   97.655884   53.584393
H   30.509014   55.576466   21.076199
H    6.624939   58.334526   96.882591
H   31.121107   83.342995   82.486351
H   49.182251   50.012413   75.433693
H   24.147182   63.756165   68.349327
H   59.898983   97.375320    9.507720
H   18.636524    7.461233   33.065483
H   66.645805    9.012525   39.510967
H    5.205882   70.662857    6.110865
H   85.867477   32.050491   79.690712
H   56.541103   53.552841   18.105993
H   30.155998   64.598511   19.132603
H   44.354313   16.712744   88.565964
H   43.113705   24.269194   12.976600
H   79.663597   39.554432    3.214526
H   26.049053   54.763550   74.784843
H   45.872421   15.032599   81.091576
H   91.012810   53.656933   48.396084
H    0.631547    6.591523    0.321506
H   54.372810   26.547462   93.254265
H    5.419684   43.409569   68.050034
H   35.801178   77.453041   77.806923
H   86.243134   61.990215    2.939583
H   16.043671   15.867689   73.954735
H   98.423866   75.361984   39.755356
H   57.572071   21.805506   46.101562
H   30.945896   72.535629   73.771164
H   56.542740    9.667507   21.635962
H   54.318932   61.444542   80.196297
H   34.339111   43.662449   39.796585
H   90.150566   40.610142   36.257465
H   38.447941   43.885216    5.936265
H   44.832863   32.270020   89.837952
H   42.652016   11.042753   94.383766
H    8.181704   64.045639   70.216171
H   38.666428   38.883095   16.906631
H    5.854755   91.893944   67.509148
H   34.532490   36.694111   29.631001
H   59.207062   69.621880   15.823784
H   79.847923   36.928226   90.953575
H   97.380615   81.346626   26.412615
H   32.402981   36.925831   80.709236
H   22.492073    1.291287   34.254761
H   21.414034   87.723160   17.616629
H   65.183716   81.105423   14.401868
H   75.187386    1.590494   67.926666
H   38.792015   95.555954   47.467632
H   77.269539   95.536003    0.145309
H   21.278316   16.550510   34.067032
H   44.438667   92.624458   92.909561
H   46.880455   53.035572   37.006401
H   72.915878   79.645149   81.989265
H   66.892090   76.861374   26.156031
H   55.203026   78.460648   52.758343
H   96.267693   20.338087   41.162140
H   47.565201   97.016579   55.850422
H   93.222023   55.891430    7.702519
H   58.923912   43.727055   45.893497
H   60.505829   72.658905   75.670654
H   14.211498   91.865379   12.310149
H   27.373453   65.969208   65.475792
H   39.607635   61.200916   71.874809
H   90.092514   33.672451   53.555264
