200
TIME:    0.318, STEP:   318
H   11.867965   62.216129   16.673328
H   28.659502   34.016876   93.063667
H   16.502823   72.552200   49.190117
H   20.471775   77.885445   42.460014
H   14.381997   85.706146   52.537048
H   87.081116   50.697952   63.240570
H    4.489303   55.248787   51.161114
H    4.636563   92.254608   22.303661
H   90.596153   86.336868   45.816608
H    8.115444   73.806297   92.995827
H   14.912432   96.260445   95.426544
H   31.100342   44.104774   16.458845
H   13.088588   89.596535   58.094841
H    0.716788   53.536022   46.024410
H   15.855977   72.545036   42.786674
H   27.026836   22.752567   52.640381
H   87.876755   11.371624   11.645027
H   34.709953   86.916718   42.131718
H   67.620621   26.878052   43.632065
H   90.304405   78.633507   34.447056
H   59.021156   80.651947   22.266941
H   88.292549   51.795784   67.568878
H   92.669472   61.974335   47.264641
H   10.260358   88.770317   91.341499
H    6.636742   15.841074   42.627102
H   18.596525   65.797791    4.380392
H    0.406155   60.361851   52.218002
H   96.300323   73.347099    0.936509
H   14.353803   54.158882   37.881630
H   89.524689   22.853865   95.927750
H   13.259657   54.707981   16.290176
H   30.507648   65.334457   95.523491
H   25.238640   10.663923   74.131897
H   93.845039   63.663017   39.653656
H   44.245304   86.577988   33.625782
H   30.513367   48.143517   80.370903
H   88.503204   72.745483   86.540504
H   29.056736   46.772976   11.660412
H   50.183456   43.607548   46.165436
H   89.334717   39.367733   60.649506
H   80.527519    1.580173    4.113269
H   17.221697   41.471275   37.518311
H   75.297440   85.990105   53.224598
H   37.107498   67.022255   21.537981
H   31.441980   78.674927   47.178703
H   39.962143   11.808561   43.536182
H   81.444031   22.390793   97.889305
H   88.216881   65.549416   44.843582
H   90.096893   25.792171   61.222569
H   59.326115   18.153502    2.412451
H   76.352737   69.508858   24.777523
H   18.156404   37.040508   65.218697
H   54.280121   92.190041    8.948663
H   21.245716   83.829727   82.858238
H   73.897324   74.650238   88.250755
H    4.305750   70.428505   81.202362
H    5.207882   17.040627   48.817890
H   68.260849   60.392643    3.895637
H   26.535284   75.984238    9.013003
H   41.299267   95.551186   65.552322
H   50.166901   13.854605   39.957596
H   91.338135   16.609659   49.663952
H   73.596191   26.822294   82.253418
H   26.015903   65.263618    5.409006
H   72.602234   77.241882   21.119150
H   35.680031   19.591486   34.265335
H   83.261574   21.516705   87.446632
H   96.904625   91.627266   88.815819
H   19.296957    6.907306   60.992546
H   44.787968   42.989475   50.978428
H   58.430946   77.941208   75.367737
H   29.948326   21.771589   44.218830
H   79.969376   27.011578   96.883896
H   10.406484    7.250213   62.843204
H   80.094803    2.134218   63.945160
H   55.285301   16.322811   62.367775
H   95.097900   32.853951   71.042274
H   23.666214    7.390276   45.300331
H   12.123569   33.168568   33.210903
H   67.100784   90.231934   90.562531
H   46.678600   28.783770   99.975830
H   30.066128   67.187614   85.445915
H   10.695397   14.521895   87.997536
H   22.130491   64.410164   96.393768
H   36.130623    0.148655   55.571724
H   26.864742   83.045227   26.159111
H   39.351089    2.946644    1.950140
H   74.682838   15.641323   14.384179
H   68.073654   72.244667   77.450188
H   23.053452   89.543327   54.007381
H   37.973083   35.566143   80.407547
H   83.512108   89.219818    0.069808
H   50.965038   15.982403   93.508347
H   56.530209   91.631355   71.246407
H   27.101353   55.871101   71.188393
H   66.041908   29.453217   25.394274
H   80.363670   11.581320    1.688499
H    4.750425   29.650764   49.332081
H   35.250481   68.996674   53.157669
H   68.560646   99.194931   27.269449
H   13.346276   82.583008   72.612709
H   93.472786   77.836639   65.434349
H   24.796263   34.319458   31.592903
H   25.623945   68.083496   93.259827
H   25.235342   26.447685   27.616383
H   90.511040   22.954023   40.238983
H   69.353233   31.065294   55.896225
H   64.291786   37.269180   15.725519
H   74.778816   39.105072    2.904285
H    6.872371   26.972857    5.919016
H   48.220779   95.388969    0.850729
H   89.125931   65.306824   91.399635
H   55.739311   81.179794   92.238762
H   62.959953   17.715763   72.942566
H   61.247322   85.216583   24.037762
H   10.855268    3.515433   82.453171
H   29.367985    9.541028   85.089401
H   40.375378   30.835720   32.419365
H   21.824564   60.642063   79.684647
H   72.841057   48.231625   52.252464
H   41.368660   22.277760   84.963905
H   14.923550   25.632267   50.482544
H   34.116890   18.532894   26.343019
H    2.928096   64.511772   14.449486
H   74.582420    7.020852   90.233406
H   50.579983   64.486664   24.025354
H   93.447823   49.554123   68.042404
H   73.722542   88.181725   35.661343
H   93.427605   49.660252   83.112724
H   71.525818   23.779644   67.830452
H   51.757591   82.400665    6.392162
H   78.706093   86.824997   11.166417
H   92.183052   86.389641   97.955368
H   97.095901   15.002840   50.667274
H    8.279349   99.959778   52.832642
H   60.280609    1.526745   82.532478
H   69.021851   86.763283   59.221642
H   91.883659   61.785534   81.965935
H   48.352020   45.424438   71.531639
H   43.490196    5.348954   93.290161
H   54.479214   60.774879   17.429535
H   53.647507   43.380783   48.065197
H   52.498077   58.196651   96.753342
H   54.138954   23.704130   79.416969
H   43.968304   67.180206   51.619114
H   48.798065   63.319748   26.110474
H   46.576042   96.436211   46.723400
H   40.522606   70.515236   68.377464
H   67.270477   61.535706   97.169052
H   11.948353   89.526375   87.078003
H   73.470894   62.634624   50.755352
H   37.070793    4.951486   45.707985
H   79.799271   28.922039    0.726300
H   11.971813    2.933119   74.025017
H   16.705532   55.938953   62.164474
H   65.817604   43.722309   56.460670
H   60.127728   63.222599   81.679367
H   47.155022   35.408417   11.551514
H    8.811916    1.440430   99.712364
H   62.805187   53.761261   81.234390
H   54.722130   81.240517   81.341988
H   39.941906   22.652084   34.868248
H   68.576866   31.169250   37.199619
H   14.137745   22.471066   67.861511
H   58.207344   24.735037   10.590950
H   13.257564   61.957462   61.875439
H   73.556709   96.305367   53.048580
H   23.700352   34.481400   51.238117
H   95.132820   27.916552   36.672752
H   30.032501    9.871093   89.524994
H   77.874878    6.561420   35.969528
H   43.468361   62.550049   57.697639
H   39.180016   74.102676   88.229324
H   70.265038   72.674500   76.050674
H   67.812561   94.449783   95.563866
H    3.315585   48.082176   23.361578
H   34.616451   55.357758   90.170860
H    2.421295    9.275246   65.877579
H   73.606819   19.566317   68.222565
H   82.590126   55.291801   87.485329
H   79.993759   87.984566   39.905754
H   20.800943   30.201260   72.463684
H   62.044193   90.084824    7.613812
H   53.179329   25.364796   80.059822
H   86.531647   84.951279   78.075485
H    0.893341   36.881943   84.344582
H   34.067993    3.188484    0.993393
H   86.673752   70.528511   28.255791
H    4.359554   61.521236   67.434860
H   51.031975   57.849010   66.688492
H   51.546444   28.443726   78.744453
H   47.013489   87.048920   23.630880
H    5.833046   19.379673   59.592979
H   33.740803   66.644058   34.885220
H   82.217880   50.771366   21.561138
H   75.518570   10.574842   28.497734
H    9.979754   87.686272    6.099469
H   26.642633   95.855965   44.766953
H   10.873162   11.830145   74.528633
H    7.194207   32.350231   96.665131
