100
TIME:    8.022, STEP:  8022
H   74.827141   86.365623   91.801651
H   78.928726   39.564877   83.918289
H   17.661760   51.038498   29.173637
H   82.823074    2.143139    0.448722
H   23.315027   15.755925   48.195374
H    3.616357   92.517265   73.192207
H   32.537525    3.020579   17.784016
H   89.372910   82.606712   71.641075
H   56.431801   15.010285   95.130417
H   55.650551   31.569033   21.813469
H   54.068130   89.025314   67.028992
H   49.665207   25.791790   21.914154
H   32.213509   76.424393   27.902967
H   57.879601   80.349831   67.718864
H   78.041206   53.468246   65.121613
H   78.975708   10.095573   67.144806
H   79.025459   12.564480    3.662663
H   72.611893    4.488573   21.444279
H   70.207672   14.885022   85.992096
H   76.388535   35.457561   62.507668
H   88.239876   57.602657   39.512615
H   31.457293   54.733307   36.130859
H   78.636940   29.381044    2.830592
H   73.699097   32.794647   11.289945
H   42.670967   49.976204   95.784218
H    9.782986   89.614914   35.976372
H   70.333755    9.011060   59.140026
H   55.667923   30.879538   31.936415
H   85.601280   76.910690   77.968102
H    8.592741   92.294662   21.114445
H   31.771067   41.403847   74.703972
H   72.271294   30.872311   56.627342
H   35.415623   81.554909   20.482069
H   17.050270   38.554207   33.796326
H   81.310188   52.292046   13.116238
H   69.976486   13.746388   94.206245
H   49.212811   10.751814   40.567471
H   32.428780   12.144045   88.531868
H    6.459538    6.632364   66.920952
H    7.611073   61.191422   69.189819
H   87.005020   31.436773   31.339323
H   24.163597   73.061432   89.497704
H   80.324554   11.609432   80.910561
H   67.110519   47.291283   65.083038
H   60.805771   15.386494   42.574493
H   74.574791   15.921378   15.751539
H    4.409225   61.101875    2.467826
H   56.677242   77.993988   64.933449
H   99.523811   68.067146   24.472607
H   94.163818   52.833408   22.633820
H   42.950764   95.170815   37.990753
H   94.997330   19.356421   47.442596
H   75.271187   68.523010   36.966652
H   90.922119   76.319778   85.805557
H    2.070887   61.615578   68.578552
H    3.587150    4.095358   19.538986
H    4.812804   58.075050   18.946541
H   28.720797   19.308455    6.926021
H   22.952309   77.726891   95.636993
H   29.649658   44.386280   35.445824
H   65.734543    5.512142   88.937965
H   14.201485   53.274429   32.383858
H   18.673725   59.876251   83.377838
H   93.895927   85.462280    9.340270
H   50.730927   20.140173   42.623184
H    8.544487   43.475883   20.507603
H   43.948730   25.704288   54.364605
H   26.231499   76.323906   49.700592
H   56.718979   73.376579   57.108109
H   92.947395   51.567455   84.829071
H   67.297783   49.585602   65.923409
H   12.675530   85.237694   44.055225
H   83.941452   21.511553   56.067883
H   53.610561   41.707157   26.513170
H   48.898590   40.127171    9.535065
H   15.300466   21.707363   56.149582
H   95.351280   31.476082   33.012329
H    8.867555   26.184109   57.466053
H   46.196350   29.955578    7.181814
H    6.119266   72.023003   29.818642
H   67.859047   12.273629   59.446899
H   43.260635   96.494431   15.884003
H   25.283541   41.274326   93.917343
H    2.050641   98.618774   30.731503
H   61.725571   47.095776   70.110100
H   66.668259    3.714469   98.855087
H    2.926038   20.087730    6.063232
H   85.044853   63.146828   12.402313
H   22.163967   47.519798   62.581184
H   57.086987   79.229752   10.984957
H   52.315998    6.597061    2.871861
H   71.845665   98.810867   86.378166
H   99.679291   68.219902   39.358154
H   22.561480   99.858360   67.709923
H   17.895882   31.167778    0.424372
H   56.505905   78.952209   53.102242
H   25.853529   28.044903   75.836021
H   22.793001   83.387810   17.839464
H   26.563286   71.443138   73.111397
H   37.488255   72.774277   24.955280
