100
TIME:    6.948, STEP:  6948
H   47.457108   84.856056   92.784927
H    8.589912   81.366158   16.198494
H   99.199951   73.771034   41.783237
H   82.642807   46.393341   59.320637
H   32.938446   29.670179   77.316742
H   20.273174   93.680809   66.830765
H   88.825516   30.499844   33.795803
H   73.787193   89.692444   70.252296
H   82.832771   18.271652   62.736423
H   84.984962   16.147982   79.760048
H   53.968994   45.810322   70.482231
H   90.654312   71.958008   98.363350
H    0.700420   41.428967   34.633232
H   11.058010   83.660194   85.985817
H   64.996407   49.403221   16.773891
H   22.159893    4.031454   56.296387
H   65.390266   41.526546    5.892205
H   49.647266   56.749329   58.670647
H   53.480740   69.832047   29.409550
H    5.328133   58.261379   89.384789
H   51.972549   64.522919   68.659874
H   28.491867   53.307556   27.591873
H   92.976387   38.114586   33.560989
H   73.489220   19.946505   91.054520
H   81.084297   35.149063   87.852455
H   14.846859   21.273643   37.045082
H   62.946171   53.658211   37.827511
H   46.289368   80.748863   96.435532
H   62.248466   79.469032   28.735769
H   67.410324   18.877129   35.734215
H   89.502754   45.095970   59.675362
H    4.458300   60.542675   56.052895
H   59.765903   60.133507   23.727667
H   71.671242   36.979904   79.043427
H    8.039246   33.608925   47.774162
H   76.615532   29.626289   97.582161
H   46.202362   50.085083   55.940525
H   76.817879   31.800976   12.743186
H   51.796375   30.030245   70.999557
H    8.769859   61.735714   84.688950
H   60.404922   94.587105    6.037151
H   14.674500   68.849731   34.668041
H   71.081757    5.166924    3.336124
H   35.690166   29.264547   60.073418
H   53.967583   57.757542   50.669498
H   88.438988   95.439316   11.388250
H   96.015915    2.693286   92.158226
H   56.611691   66.932129   98.480820
H   68.124519   57.015697   67.317520
H   71.614014   36.486439   97.727364
H   43.024509   98.858566   26.668617
H   42.800365   19.016060   17.943520
H   52.995930   62.295593   99.339149
H   15.793800   93.838486   38.411636
H   87.584518   67.495323   59.446384
H    2.249485    5.225101   56.100479
H   36.724659   89.064644   16.800209
H    8.693543   20.734690   34.591904
H   38.250740   32.342968   78.086311
H    0.523478   61.835690   65.992943
H   97.985344   55.456131   72.674454
H   52.319832   63.271072   80.979431
H   45.760593   33.164467   57.025238
H   20.145988   79.611786   38.502140
H    8.099998    5.918630   42.606281
H   74.520874   96.867790   57.003830
H   30.117876   88.572723    2.510930
H    0.419713   14.900771   98.357178
H    3.188180   50.547363   24.465893
H   71.148155   97.605400   87.102631
H    1.401203   22.659866   78.804329
H    1.099932   20.919628   65.335182
H   53.968796   74.632233   83.602112
H   77.254753    9.680946   90.327454
H   97.162712   38.547390   28.103992
H   89.911598   52.875286   28.417528
H   97.809174   24.433422   13.965227
H   58.410000   96.407234   98.150612
H   94.695885   33.110256   95.198509
H   58.788437   30.529659   22.344658
H   46.834679    1.162178   95.255219
H   62.667961   89.529556    5.735107
H   57.352921   23.313147   91.635391
H   28.161297    6.714289   28.824772
H   14.019484   14.282922   74.221733
H   91.381271   64.268311   24.273575
H   31.196001   98.176262   54.850838
H   67.771965   49.088421   23.537918
H   99.872665    7.319105   71.365120
H   52.042744   23.415981   72.589569
H    8.363544   48.603043   80.190842
H   92.380539   18.035423   65.909630
H   30.833561   35.994091   56.304085
H   18.764286   34.699913   95.292023
H   36.466530   27.370033   75.744171
H   67.797897   21.362753    8.575729
H   11.103022   66.411194   37.603760
H   24.866076   30.246796   39.400490
H   77.726433   66.805351   63.070522
H   70.777092    0.338724   28.417431
