100
TIME:    1.889, STEP:  1889
H   89.577301   48.790359   97.416580
H   48.724297    7.162959   97.157860
H   12.225050    9.806502    1.160575
H   81.793671   54.823631   36.620571
H   78.251450   24.169193   14.486404
H   98.724007   99.161598   65.820610
H   53.966816   88.891685   38.175117
H   71.414619   52.023731   34.752396
H    7.192772    4.673695   81.181618
H   23.218321   43.506599   81.661430
H   24.544846   42.250401   57.790699
H   83.742569   18.376223   58.467827
H   23.103447   47.420326   37.377769
H   61.549324   99.253426    0.992810
H    3.476702    1.294454   59.971481
H   25.572525   46.510796   76.238052
H   72.194687    6.919594   45.343071
H   41.511589    2.838456   34.058395
H   74.684273   57.601067   62.880550
H   41.624702   65.696396   44.944527
H   52.180695   68.162231    5.974010
H   43.477543   46.593201   58.410973
H   60.523155   79.259102   78.303345
H   43.532967   59.337315   66.781754
H   62.022331   36.359085   50.499428
H   37.997417   71.320831   12.116624
H   99.187828   63.955936   37.451443
H   73.152939   44.611843   29.212160
H   52.245392   20.476843   67.878288
H   73.426140   44.087357   33.558193
H   90.409645   91.441238   59.933468
H   85.029877    0.323506   24.389854
H    3.415632   30.273567   67.972992
H   57.916115    0.607275   92.171143
H   33.817772   16.126411   39.754906
H   36.796246   32.874531   14.145963
H   60.977844   35.357765   57.311100
H   85.915321   24.380039   55.741886
H   65.799881   40.183418   61.076256
H   85.270561   35.341251   86.656937
H    6.149803   20.999704   86.848557
H   61.848633   96.636040   91.548584
H   27.511900   74.827713   37.917847
H   58.733696   44.430542   65.429489
H   92.798897   57.358570   17.756975
H   53.716831   98.946571   90.840950
H   56.026173   27.641573   43.764595
H   56.340298   14.832396   85.458565
H   20.248281   76.001915   69.123001
H   65.507622   59.501186   51.544659
H   43.400501   87.272499   73.334167
H   96.935463   88.454025   50.053448
H   48.064842   32.961792   93.159325
H   32.947880   76.387169   15.172934
H   90.376541   24.104460   16.435560
H   95.929794   10.546700   28.320786
H   16.006868   35.040886   35.647148
H   85.398285   98.494507   64.899368
H   39.257912   18.583349   66.464920
H   34.364071   72.983414    9.882331
H   78.860092   90.725044   67.113365
H   31.866867   10.361652    9.882201
H    2.361818   78.337486    3.965341
H   72.754517   52.070183   75.855797
H    7.298929    9.972333   71.480820
H   85.301094   48.365211   57.877773
H   36.011002   13.671105   58.263439
H   49.879677   25.571472   56.507725
H   51.050896   14.054825   41.758194
H   68.652405   43.154625   97.755432
H   62.048210   66.873222   39.491856
H   18.210707   88.832718   94.925163
H   83.825027   24.868931   13.311260
H   88.617821   29.839533   90.939674
H   53.246841   31.331522   44.597271
H   70.318153   28.639414   68.822746
H   38.463860   62.822144   24.456583
H   20.728985   27.203192   18.761723
H   52.098747   47.968601   38.753792
H    6.885242    6.074503   58.182137
H   47.848331   48.824230   92.890175
H   83.057007   56.564163   28.820852
H   37.319828   38.785980    9.817755
H   80.116646   73.805763   90.890625
H   60.350937   30.726120   64.635086
H    7.813305   78.441856   72.961113
H   93.316750   66.007233   13.618174
H   86.364334   54.056625   76.105324
H   94.883736   88.996040   12.745071
H   99.324936   31.556831   91.745354
H    1.328187   75.431213   73.353958
H   18.054155   37.576275   69.513985
H    6.486279   84.232712   65.053329
H   29.806759   27.814051   54.183327
H   23.932442   80.524689   59.493675
H   49.945251   21.136602   69.879593
H   12.662639   76.086388   28.551315
H   13.800904   32.321381   25.811779
H   18.725269   44.993031   86.818283
H   56.554642   30.182007   15.747965
