100
TIME:    5.205, STEP:  5205
H   65.329506   44.696266   94.380692
H   56.725563   86.914932    6.297012
H   69.226181   48.372238   62.248913
H   82.350250   18.204403   54.860306
H   48.550339   89.961212   24.575569
H   47.308079   95.569130   94.214561
H   80.175591   12.803438   97.490784
H   10.783562   38.900303   30.288021
H   25.679100   85.853790   72.451668
H   32.600288   91.119453   11.510656
H   16.098602   75.677094   38.377613
H   57.182480   84.590523   22.431261
H   11.925156   46.834068    7.826902
H   97.360832   89.032600   53.343758
H   43.812035    5.096132    0.571777
H   92.241470   56.480728    0.980225
H    5.551943   26.241283   47.220032
H   12.373200   41.560169   19.093657
H   26.338062   96.707993   37.581295
H   52.283493   95.281044   70.713234
H   55.404640   38.043388   15.972019
H   61.388763   50.993698   76.024460
H   16.249779   52.290291   83.428619
H   35.438267   99.095184   20.504208
H   43.422882   73.377777   74.979958
H   22.818995   72.786301    0.963653
H   13.245520   26.110790    3.240323
H   93.359322   99.391525   38.822632
H   24.349068   21.330286   11.129379
H    0.576809   62.015953   97.171608
H   20.904213   88.798035   97.575905
H   94.404213    8.705115   17.411095
H   36.990353   87.660088   66.704460
H   98.024551   96.715630   52.472420
H   51.389465   65.461990   41.675850
H   25.099169   93.106270    3.062525
H   79.025848   13.917046   18.598797
H   48.858837   63.702961   89.744225
H   25.367313   68.009087   39.908798
H   72.939949   24.908363   47.553356
H   79.527039   34.779045   64.973244
H   63.824730   45.461494   47.332424
H   56.074551   94.712784   77.435982
H   46.986103    0.008484   89.653488
H    5.160894   26.529373    1.515957
H   10.935350   62.194233    4.306745
H   82.398727    7.903052   75.429298
H   56.517391   48.979782   90.633858
H   17.178673    1.372562   36.844353
H   35.042210    9.954779   19.620056
H   43.147511   67.134308    8.295989
H   58.085533   80.754623   32.363480
H   16.838573   52.189087    0.570162
H   56.153336   22.278244   61.498558
H   26.365421   14.746003   44.619076
H    0.078499    7.058568   15.436325
H   26.226479   39.358803   51.026299
H   38.480118   85.339439   79.486069
H    0.784914   58.693161   11.891930
H   15.543234   27.861645   15.568001
H   88.035736   36.515522    8.573853
H   14.180925   79.494675   59.846329
H   27.427401   52.103439   76.547974
H    0.457037   70.116989   85.823715
H   38.917831   45.129665   80.287849
H   81.594688   83.517174   53.943550
H   69.961548   28.313499   18.359715
H   20.820992   15.216689   15.031699
H   16.317724   75.788231   33.784195
H   35.839180    9.937998   90.772888
H   56.750587   41.252182   99.708839
H   44.790810   78.781052   37.707451
H   67.615585   60.843941   28.291855
H   15.627552   19.994923   93.890617
H   13.125806   36.060658   95.971893
H   48.709351   41.164574   45.698627
H   39.535198   75.412056   83.101463
H   76.520691   10.377777    1.891255
H   11.112657   38.230000   75.756783
H   44.262482   25.477173   72.505859
H   12.725540   83.129776   91.079979
H   31.863167   78.220169   51.538841
H   47.103378   94.165344   25.641432
H    8.246050   57.562302   88.020813
H   98.888252   23.308716   43.185966
H   31.498257    0.241623    3.234107
H   14.784918   24.907028   71.737991
H   39.737793   88.570114   41.613815
H   63.702011    4.366585   85.620613
H    6.146255   95.126511   10.284433
H   37.032738   54.485615   43.381878
H   63.416187   86.945312   32.703674
H   19.103838   83.697121   21.515217
H   50.310875   28.954420   77.764336
H   66.599876   83.497459   35.690495
H   23.833282   90.192352   98.603699
H   49.453728   66.384972   37.844879
H   25.970900   60.555145   72.742363
H   60.758881   59.287006    9.063057
H   62.512066   45.064449   96.326050
