100
TIME:    9.654, STEP:  9654
H   64.461334   36.703621   90.307510
H   33.855484   28.000050   86.820671
H   45.714252   68.451378   10.016537
H   83.097000   34.906609   10.993369
H    8.691126   46.567657    3.947008
H   78.314209   90.749199   34.813599
H   47.003292   13.221789   45.408550
H   61.100937   23.795841   21.795174
H   16.314125   58.099228   92.402336
H   11.072432   55.002140   85.713875
H    2.263408   54.690674    9.825121
H   87.374519    7.595669    5.747173
H   28.146225   77.644371   65.718887
H   77.073349   75.319557   91.913246
H   97.863472    7.689949   86.639427
H   13.356262   67.354782   31.674850
H   47.789803   20.508316   52.230057
H    7.512175   25.075096   64.869217
H   95.632965   83.350494   71.973404
H   32.419941    0.800357   73.621819
H   91.394180   95.131416   95.216858
H   87.918732   56.899811   97.151031
H   56.847389   16.114321   56.138504
H   22.061722   52.318085   90.084213
H   84.302475   20.549728    7.833099
H    2.085473   41.503586   82.397774
H   29.603409   41.171787   91.514938
H   17.965445    7.055791   85.882286
H   21.088253   24.978266    0.823019
H   71.170372   51.903061   50.853676
H   96.000435   87.748642   45.585342
H   75.316818   85.781860    5.544925
H   50.372955   62.149750   67.505516
H   86.006210   88.991264   65.043709
H   40.694466   28.726692   12.409429
H   11.843218   41.576641   89.076363
H    5.743585   50.985115   69.162796
H   64.972069   82.282234    3.698054
H   37.573887   71.072960    8.768326
H   53.893963    8.407161   97.590958
H   75.469101   87.434906   69.788536
H   86.627098   79.462540   72.810783
H   94.369476   21.400883   98.791924
H   62.911160   74.691322   24.650387
H   19.237707   50.999607   82.229706
H   53.513611   47.046093   22.381788
H   17.168652   49.858608   18.140165
H   56.776852   94.803070   65.911987
H   47.224625   32.905918   59.373932
H   28.420561   77.680351    8.524740
H   45.036823   37.777756   51.820602
H   74.313339   67.920395   40.311226
H    9.115915   77.985901   42.183472
H   53.123947   49.692482   57.820381
H   72.128944    4.634758   82.449158
H    5.619804    2.378653   63.981842
H    8.274479   10.984386   74.163155
H    7.199471   65.185921   64.890282
H   51.670605   46.687195   70.348534
H   21.954853   69.827606   89.027870
H   68.686157   29.615919   61.700512
H   56.278587   38.084000   58.544083
H   29.476173   48.520439   71.470779
H    5.962324   94.352417   65.036758
H   15.505996   89.793739   94.603249
H    8.289387   62.344658   17.004679
H   13.009853   82.125244   33.158031
H   13.498084   69.659920   27.719635
H   38.056480   56.111465   54.751865
H   26.092697   33.539593   81.367645
H   15.466299   38.539173   46.350166
H   78.283241   31.050194   63.678715
H   77.533386   40.783543   14.219494
H   17.688931   38.418530   29.545179
H   27.513121   42.530247   33.274265
H   53.886589   26.303223   46.337166
H   43.572212   90.221725   61.961304
H   85.534508   19.477562   47.605194
H   24.458212   25.161877   25.396372
H   26.083920   83.119820   89.220589
H   99.808754   29.157419   56.989861
H   65.723076    7.085211   79.349709
H   28.509848   68.567299   49.341785
H   14.329301   38.273270   81.673485
H   82.262192   45.003769   11.907174
H   29.103954   63.663925   12.186378
H   11.923754    1.427416   83.883095
H   11.290968   32.554726   95.484436
H   56.032963   56.652824   49.233528
H   12.795274   12.083405   69.321808
H   19.104788   94.718674   37.336937
H   92.597137   21.552454   17.474504
H    4.293601   17.182226   65.563225
H   78.086769   98.702499   81.129646
H   89.677994   84.983070   37.923347
H   91.302383   14.506563   68.807220
H   96.313560   21.701443   81.977493
H   19.642855   64.138580   85.071373
H   48.818657   78.490501   36.414104
H   38.858162   30.898216   67.740326
