100
TIME:    5.255, STEP:  5255
H   61.948158   40.111000   94.334915
H   55.344643   89.624130    9.449695
H   70.086014   51.969498   61.661831
H   82.358643   16.144276   52.119446
H   48.102493   93.968933   23.220016
H   46.532551   95.514961   99.166039
H   77.554893   16.179737    1.400859
H    6.853661   43.225788   25.697033
H   24.450005   81.046509   69.304543
H   31.233973   91.837379   13.468740
H   11.447723   77.688965   33.561558
H   55.273987   87.096779   18.872339
H    8.734543   43.810539    2.858593
H   94.885094   88.878487   57.148918
H   44.420097    0.630028   98.168457
H   90.231125   52.107559   96.829803
H    1.531191   29.548244   51.771729
H   13.442365   39.127537   17.360449
H   27.116833   98.805313   40.215343
H   50.936523   94.219032   74.117470
H   52.437569   33.065590   14.614941
H   66.182312   51.060074   71.766495
H   15.582147   51.883644   81.998108
H   30.792397   99.693329   16.790791
H   41.634552   69.412781   75.349220
H   22.591066   71.308487   96.261703
H    8.933958   24.032352    4.232478
H   89.140266    1.725342   40.475540
H   25.436256   25.866533    8.765984
H    2.493958   60.778465    1.146478
H   22.872025   93.281830   93.620064
H   97.561256    7.323741   12.782341
H   40.512463   84.001793   71.208855
H    0.137137   92.133415   50.365944
H   50.146637   61.682388   44.720360
H   29.445444   97.022438    2.905264
H   83.821686   12.085800   22.538616
H   46.792416   62.787815   93.272820
H   23.256641   66.919609   35.063370
H   68.230324   20.227539   51.487453
H   76.109833   36.494514   66.151222
H   59.331017   47.705681   49.681133
H   56.505230   95.012619   81.047737
H   43.793583    0.847741   94.542404
H    0.823777   24.556793    5.794712
H   10.290190   63.147907    4.510021
H   82.789352   10.622357   75.909187
H   56.520061   49.494766   93.727577
H   18.640083   97.231445   34.849648
H   36.090870   10.715811   16.123123
H   43.143696   62.307190    8.823085
H   60.515495   76.115189   29.080933
H   17.875790   52.479004   97.666374
H   54.995575   21.462280   63.704979
H   22.384212   19.127783   45.044415
H    0.140788    7.005973   13.734207
H   29.396111   37.916084   55.781700
H   34.756973   80.617607   78.198227
H    4.728170   60.805740    8.053391
H   12.243807   31.704952   14.145882
H   91.189728   34.190464    4.675519
H   12.406519   79.029282   57.583832
H   30.821909   48.691574   73.119324
H    3.890502   70.389359   84.466446
H   40.902618   41.136059   84.944069
H   78.523094   81.031517   56.899940
H   65.950012   30.042130   20.773846
H   17.367165   18.076376   17.421988
H   18.809866   72.195549   30.648132
H   36.851982   12.452932   90.667603
H   55.162910   37.850235   99.109169
H   40.668266   77.121658   41.368416
H   64.355545   58.370872   27.009735
H   14.527012   16.830441   90.919731
H   15.536408   36.131992   99.762177
H   49.891525   44.369301   42.334446
H   44.075069   71.078560   83.985710
H   78.869781    7.108377    4.652649
H   13.510289   38.083134   76.314491
H   41.810776   22.753479   68.198303
H   13.703915   83.647049   94.068413
H   35.614922   78.546707   47.357933
H   50.266144   95.001526   30.403318
H   11.685953   61.840866   83.453857
H   96.453712   20.181046   38.339012
H   30.347363    2.078212    6.706334
H   18.124304   21.271622   74.122177
H   40.542694   84.566971   41.093872
H   64.739609    1.582735   85.211678
H    1.725510   93.069626   12.071714
H   39.078941   57.185276   44.437786
H   67.115685   90.705841   33.656204
H   22.308947   85.197060   25.381794
H   55.142952   31.987867   81.135765
H   65.735466   79.019005   36.839481
H   27.963074   88.217865   96.021149
H   45.484917   69.254387   34.969360
H   26.154387   60.980865   71.942039
H   58.376984   59.502537    4.874901
H   65.617813   43.781567   91.509613
