100
TIME:    3.184, STEP:  3184
H    2.001781   30.032219   96.230972
H   12.701349   77.376968   78.845779
H   34.484840    2.974208   85.964485
H   82.011032    1.468450   65.638855
H   66.652252   27.969143   79.373672
H   78.647713   97.758629   94.067863
H   86.096733   76.337151   39.445885
H   69.630173   64.057266   15.849129
H   75.359138   80.164719   99.664772
H   87.831169   62.100883   32.372070
H    4.087097   94.357864   33.050762
H   34.316544   83.288254   66.288445
H   40.728004   69.070923    8.665657
H   97.428307   95.261879   99.542885
H   19.230133   85.619797   97.719582
H   73.502533   33.244904   68.741554
H   68.068794   92.568024   63.240429
H   69.183800   39.862831   89.159851
H   94.859367   11.924830   31.107729
H    6.738190   38.199566   33.114128
H   75.333649   39.240379   70.821594
H   67.633530   48.310791   48.131256
H   43.233040   68.726952   41.253098
H   23.213440   74.868774   70.602943
H   15.706306   33.652336   60.054359
H   32.059498   32.737301   90.734993
H   87.519058   10.121196   63.149494
H   63.884129    5.058044   72.019463
H   80.403580   37.969070    6.663419
H   23.081806   12.036117   36.507019
H   41.365826    7.571393   57.471001
H   66.796913   64.537987    4.505232
H   94.633759   35.525215   84.636818
H   12.632499   81.928200   37.613419
H    1.624756   18.234314   18.612236
H   49.390865   34.604595    9.694993
H   85.185890   87.930161   59.352047
H   32.390961    0.678126   47.126835
H   10.673825   12.043657   35.758621
H   63.295238   14.107564   88.544838
H   17.647940   65.431900   17.359358
H   45.461388   54.759384   52.387955
H   38.666492   82.593445   31.457623
H   76.039337   66.136078   92.048668
H   80.466774    6.268278   28.574732
H   37.009640   23.646717   96.097145
H   66.609665   97.993805   56.025856
H   56.409458   28.165545   65.585808
H   58.098816   68.749748   17.462503
H   92.658043   79.204292   60.970089
H   43.301701   62.248901   86.988419
H   59.868977   68.288635   65.039635
H   74.924721   40.470642   17.947136
H    2.961880   55.259499   72.317780
H   87.278152   37.621864   27.428934
H   97.550125    9.185537   84.235931
H   98.104439   97.673485   58.812355
H   88.969231   76.197998   31.544197
H   41.391663   73.300369   67.046928
H   48.906853   72.521545   73.050056
H   60.549934   30.501659   66.144974
H   85.908226   98.305862   51.289848
H   90.222099   90.012383   15.134048
H   61.680275   59.114670   40.695972
H   58.702557    6.542699   92.080833
H    5.747087   83.986824   34.446732
H   32.110725   58.439579   20.786020
H   60.425117   99.632874   18.416212
H   15.591377   21.004387   60.539013
H   94.893860    8.287975   95.028534
H   20.926044   78.760231   23.954613
H   11.432183   45.854431   89.739349
H   99.388199   60.810909   80.110344
H   60.122364   47.890160   13.973961
H   15.685454   33.177303   42.767124
H    0.926844   11.636786   81.686371
H   56.042217   50.579277   47.360203
H   81.570435   42.526844   90.279892
H   14.198077   44.166317   53.206818
H   43.376045   35.546154   46.616714
H   73.187119   62.221600   70.289047
H   80.223679   65.021500   20.533510
H   19.250410   60.403564   33.160069
H   69.203232   84.620575   72.606995
H   97.294357   49.724300   39.099266
H   78.012756   26.007236   62.889828
H   79.806877   71.850182   75.368683
H    7.209566   50.375580   62.629921
H   21.760433   16.892355    2.150489
H   84.830261   78.277664   38.037949
H   54.325012   45.358067    0.701993
H   13.875900   34.960487   94.194389
H   89.555267   23.052473   65.228050
H   54.974209    6.365327   41.499245
H    1.539623   64.527344   89.252434
H   56.906937   69.998665    2.991066
H    9.871659   50.403744   54.074944
H   18.554358   43.347534    5.089642
H   57.034996   50.575268   78.343742
H   36.981144   96.928352   91.014664
