100
TIME:    4.080, STEP:  4080
H   41.408112   47.864502   95.410660
H   87.796272   25.952623   35.362625
H   49.886208   67.435570   75.450813
H   82.161423   64.554253   16.523947
H   58.626862   99.787498   55.078751
H   64.757088   96.787926   82.802330
H   39.137463   36.839016    9.514321
H   99.206337   41.573421   33.581936
H   53.333748   94.017929   43.265774
H   63.344841   74.966118   67.460266
H   20.743362   30.409992   46.742954
H    0.116388   28.199762    2.510665
H   83.713943   14.864403   19.612869
H   53.063072   92.500160   67.730911
H   30.130035    5.585573   54.651691
H   37.477142   54.877373   94.365173
H   96.017708   51.830067   44.806847
H   88.324425   96.290092   58.096050
H    8.815727   49.515648   78.311951
H   82.595573   19.172846   94.118034
H   22.163727   50.041042   46.504250
H   53.533920   49.500244   71.828598
H   31.270149   61.439842   15.616172
H   39.965309   85.614868    4.056023
H   83.660309   62.596222   66.671547
H   27.947729    6.040215    6.752474
H   10.255499   72.877762   80.923256
H   88.283356   46.880310    1.633024
H   99.886002   19.261547   64.308388
H   57.438339   89.859428    7.737191
H   76.629982   87.917061   86.582329
H   23.370741   39.784912   21.557991
H   57.748081   69.970146   65.355576
H   50.491516   99.815186   99.868126
H   79.353104   50.503441   73.171005
H   27.304293    4.990531    6.603563
H   71.123398   55.117661   29.953238
H   95.359108   84.285286   10.356487
H   72.855835   92.522331   48.929741
H   78.902611   30.227070   59.041203
H   56.412491   96.179947   38.468731
H   64.933975   94.969940   94.483658
H   46.384266   87.966492   96.176872
H   18.823328   81.147797   79.655151
H    2.746267   70.913757    5.246997
H   25.450069   40.736561   99.733864
H   73.609665   46.722496   64.631798
H   56.457310   37.392639   21.025169
H   84.292587   94.544647   81.721832
H   11.447352   92.835152   98.304787
H   43.233341   75.745705   96.435684
H    3.413630   85.145935    6.216537
H   93.504799   45.665955   65.910774
H   82.208946   40.637428   11.855830
H   15.938311   16.149431   35.048954
H   98.671219    8.242178   53.733978
H   54.904949   71.819969   44.029457
H   22.250481   91.581718    8.463213
H   12.058241   11.158464   98.258949
H   89.781189   41.390881   47.565681
H   17.070021   88.833397   96.287575
H   54.107445   89.966019   10.746125
H   51.052235   28.871582   53.692619
H   23.205347   63.988693   16.366871
H   94.264122   34.980938   75.521599
H   50.704231   39.443855   87.425247
H   60.222549   89.418823   64.044724
H   98.532097   50.877090   61.250195
H   60.250542   56.623550    4.341125
H   13.047564   53.355804   93.141815
H   92.473320   17.796543   13.205101
H   37.552544   16.118103   55.341129
H   40.968277   16.493526   57.139549
H   40.394558   91.188927   60.734215
H   58.883022   34.455624   10.689445
H   22.110422   69.063683   21.397633
H   37.392403   72.919968   63.205906
H   23.666149   83.939674   39.763443
H   57.162018   41.534481   63.207794
H   99.434174   86.748466   69.425591
H   90.714462   71.491135   23.840742
H   47.452728   70.873062   45.610718
H   75.939400   75.360596   18.499828
H   30.848005   61.293526   90.772232
H   53.667404   93.677681   52.242142
H   57.393375   58.921654   25.110947
H   39.648705    6.703697   18.093809
H   21.629976   78.639656   53.312538
H   40.356064   67.004326   94.821663
H    5.611293   41.414101   70.065613
H   90.992981   93.740196   19.623941
H   80.175110    2.338624   11.269115
H   46.989357   49.938217   34.517193
H   41.575603   60.716278    1.912579
H   86.049110   84.268059    9.841456
H   30.912888   34.615852   56.711662
H   38.750824    1.823603    2.544138
H   21.842443   50.976440   90.749641
H   14.351402   54.437572    3.293289
H   92.636024   73.932259    4.700274
