100
TIME:    7.349, STEP:  7349
H   20.339357   48.082222   92.417801
H   97.515915    3.094305   41.483372
H    6.093440    2.620930   37.074841
H   82.710114   29.872452   37.338940
H   29.345594   61.812099   66.443680
H   14.053679   93.246376    6.541882
H   67.807526   57.578480   65.154526
H   42.269386   24.384037   33.433090
H   72.975426   79.716949   37.493420
H   74.032356   21.905748   95.460823
H   16.668945   61.945530   31.856951
H   75.351257   92.058182   69.819267
H   75.128349   17.160503   94.783424
H   91.203041   82.424202   16.501774
H   69.866951   13.583916   97.490021
H    6.035439   68.958557   23.009840
H   33.144325   68.048843   42.396816
H   58.222729   37.236557   44.771851
H   59.724949   86.652557   50.534618
H   94.523880   49.747105   16.686655
H   28.176636   24.601013   57.776325
H   66.936127   53.839890   93.443069
H   87.622459   34.853279   22.086966
H   36.229721   24.743624   61.274162
H   66.741890    3.346733   90.813942
H   12.956158    9.453701   99.308586
H   28.366079   36.987610   45.784977
H   12.454801   99.466194    9.690473
H   70.967720   15.850916    9.781336
H   82.786804    8.951933   67.613029
H    5.283803   81.054398   27.949516
H   29.777493   49.464634   18.930290
H   88.010628   30.794046   59.852913
H   88.614128    0.230809   62.149490
H   98.059196    3.247622   72.171753
H   11.473858   61.034073   96.321693
H   84.663559   35.400024   87.537872
H   60.242813   24.461506   41.039459
H   34.868786   21.294165   32.139221
H   70.999046   24.194292   16.238138
H   32.998932    8.346555   15.483774
H   80.880196   70.422256   55.138401
H   74.532745    7.572367   32.299679
H   10.085978   35.995201   99.282219
H   19.184845   41.937450   84.983589
H   83.262505    3.087266   13.017374
H   99.148727   24.502045   96.006935
H   56.636166   71.062302   23.291988
H   79.848091   23.806049   51.320618
H   80.033447   42.589916   69.691139
H   42.996975   60.145081   30.895161
H   62.290035   81.806366   91.620544
H   61.314404   64.620728   76.051094
H    6.508560   87.297516   56.107132
H   55.656754    2.635616   62.857601
H    2.748930    4.803288   42.449493
H   62.145107   77.494041   54.938530
H   78.834152   82.864830   24.262266
H   69.875053   49.288914   47.302757
H   74.059822   92.656174   54.587547
H   23.281282   36.809166   41.409729
H   38.087563   59.538620   62.837067
H   72.985069    5.800128   29.527466
H   47.682873   81.796188   27.613781
H   24.016460   73.892609   79.949165
H   49.886688   76.932823   80.714081
H   97.944000    2.437522   21.872168
H   72.720009   37.835075   17.527298
H   23.174751   21.734055   99.315216
H   79.279137   17.766497   86.256485
H   88.667915   95.375809   73.994972
H   68.094276    7.583819   94.725410
H   27.823027   54.799862   73.322571
H   68.425362   84.300964   66.500946
H   16.480066   39.136196   58.507801
H   99.389580   78.575462    1.435598
H   34.229206   89.725655   21.076773
H   77.249710   70.188286   20.296808
H   13.925414   31.932392   99.671333
H   39.122696    8.684361   87.798347
H   54.683708    5.311135   19.222580
H   92.759956   92.130035   72.186180
H   82.716042   30.019323   29.824745
H   55.748005   41.029293   92.199944
H   94.494476   89.197289   35.349159
H   82.154160   78.996201   52.120117
H   57.977879   69.020302   73.972008
H   74.221153   16.999224   19.380211
H    8.195336   84.991982   68.085457
H   16.588171    6.916706   86.925858
H   24.774097   70.255211   88.659225
H   22.050478   48.194153   73.551979
H   56.538532   48.026661   87.314034
H   57.518066   59.028160   22.330545
H   29.533413   91.450577   84.959045
H    0.918832    5.528448   87.863365
H   79.273430   89.423904   14.540988
H   24.092051   50.087055   31.351118
H   58.623619   68.536964   29.481510
H   95.686623   90.047012   89.787613
