200
TIME:    0.123, STEP:   123
H    5.875972   62.863293   13.338949
H   26.921459   31.169992   85.147446
H   20.589994   64.017082   39.585320
H   13.898663   75.606239   47.559216
H   16.452402   80.763901   55.340679
H   93.424805   55.990559   69.012871
H    1.664138   55.387146   47.386738
H    0.266715   83.834045   29.225334
H   82.676956   89.260262   50.573631
H   14.979839   76.537773    0.687355
H    8.115542   92.094795   89.264359
H   30.293991   38.899944    7.167418
H    8.302554   83.124901   66.086937
H    9.934029   52.713306   36.627895
H   25.270714   71.043915   43.266468
H   32.710716   30.787064   56.846943
H   78.703400    2.238859   21.112581
H   39.340519   77.542519   45.603340
H   61.132626   33.937611   40.761486
H   89.684021   81.311424   42.006222
H   56.680954   70.917717   31.200771
H   92.633751   44.342247   75.083412
H   98.508820   63.392143   51.943558
H    6.145288   87.016762   91.955994
H   98.161057    7.998310   49.585224
H   18.757944   57.144241   10.820784
H   96.630241   56.449116   44.377655
H   91.825226   65.302933    0.423416
H    6.140800   60.086006   39.023464
H   98.336525   17.630066    2.673021
H   13.514245   46.561161   16.051767
H   34.053658   60.764145   90.722580
H   29.950287    6.467961   71.750038
H    0.298861   63.450272   36.245262
H   53.603138   94.635544   35.109051
H   36.883091   52.589603   78.134842
H   82.906357   76.954277   85.076576
H   38.702332   41.728821   20.427988
H   57.400444   50.590218   41.830929
H   91.204796   40.169621   68.266693
H   80.469498   10.689240   97.640556
H    7.515738   45.560307   43.300381
H   78.808487   90.469666   45.983807
H   37.541916   57.551861   14.563867
H   24.779545   72.725487   40.141731
H   42.706264   16.883432   41.415421
H   77.769333   31.944263   93.613564
H   92.964233   65.552391   51.853775
H   82.555580   33.192150   61.081978
H   66.304077   17.273508   10.662419
H   80.991486   71.977005   32.505547
H   25.610685   33.684185   61.025738
H   49.021732   97.770523    6.397516
H   24.147909   79.714661   79.970551
H   82.151260   78.986977   94.557251
H    6.805511   75.232391   74.817017
H    5.764387   16.302711   50.909641
H   66.130417   55.859524    7.415145
H   30.649979   72.217300    4.296708
H   45.809326   96.646156   69.157097
H   50.798443   17.659107   45.654865
H   87.834526   16.147718   48.169525
H   68.223991   22.782730   88.832169
H   21.291239   64.985413    1.055251
H   69.467583   74.334854   13.145213
H   43.329205   12.015681   30.760239
H   90.545509   25.629911   83.417854
H   97.996620   91.183922   84.955154
H   12.360877    4.272161   63.460693
H   45.910461   39.590752   50.988842
H   58.516491   74.568520   70.151749
H   35.428528   26.897198   45.583824
H   73.780411   23.640377    3.413357
H    4.053682   11.536386   57.166763
H   77.720383   98.977501   73.114052
H   50.356445   23.207291   63.642017
H   95.922104   25.594564   73.800529
H   30.888781    3.839430   51.968346
H   10.641045   24.480637   37.529789
H   70.039055   91.319466   99.810272
H   38.402348   32.079460    2.870307
H   21.491957   70.694199   91.474205
H   11.456186   12.382909   93.702988
H   28.489429   58.033745   90.038177
H   43.074612   98.086655   61.097904
H   21.370920   89.867966   30.218388
H   30.611410    2.540307    1.503100
H   76.304466   22.898861    7.029217
H   62.109104   71.759666   76.740540
H   24.030148   80.802902   56.152691
H   46.147308   33.882774   81.274895
H   84.870407   87.508926   95.814896
H   41.701675   18.181643   99.062050
H   65.274460   98.637085   65.892059
H   22.160223   58.508850   63.066864
H   74.117317   25.093418   34.562691
H   77.718483   18.325953   93.290276
H   10.111095   26.620626   47.485806
H   39.669044   70.950066   52.466618
H   65.170105   96.026062   27.221842
H    4.646170   77.191467   63.430378
H   86.221581   74.886467   66.509979
H   20.754095   41.445694   28.867750
H   16.253838   67.723465   85.516182
H   25.493835   29.010303   21.294266
H   82.791199   32.501190   49.368450
H   60.115910   28.644011   56.803741
H   65.440315   29.782169   23.265724
H   69.823181   41.566525   93.475044
H    0.608296   29.691687    4.964636
H   45.655186   97.083496    0.713533
H   81.295998   60.402714   89.178452
H   59.126133   78.916954   96.480286
H   63.620506   21.919722   77.971100
H   67.754662   77.096542   30.875006
H   18.813267    9.220137   73.656212
H   37.385372    6.795192   82.816147
H   41.364719   21.237617   36.317223
H   14.419007   53.320934   89.322174
H   67.694992   44.339718   44.978199
H   39.333443   20.981945   91.353714
H   23.337418   30.251675   44.746593
H   29.415655   26.757076   20.558346
H    5.801109   71.529404   22.988729
H   80.417305   11.848933   96.682724
H   43.435894   59.150978   27.790432
H   98.294853   48.643631   75.573303
H   77.987869   86.652336   34.014423
H   91.027893   56.718796   87.556580
H   62.074257   24.703897   64.508347
H   43.886002   89.363251   98.940132
H   86.190872   84.890945    6.567867
H   92.819801   76.902374   96.504829
H    6.657686   10.003131   48.266819
H   98.646202    3.485643   61.793251
H   65.474281    1.777009   85.405289
H   68.699013   86.266380   49.514191
H   90.220375   67.873604   85.047028
H   43.255051   42.697426   71.577759
H   43.384567   14.701395   98.708481
H   44.825321   66.509666   11.130621
H   62.624481   37.455891   43.519432
H   58.766636   54.607498    3.330526
H   63.074272   30.763044   76.185616
H   34.802387   73.647377   45.242695
H   41.653233   59.959705   35.449711
H   41.964073   97.290169   48.119637
H   45.847198   77.773880   69.496239
H   62.057468   69.676804   99.107567
H    5.717148   87.373848   94.372330
H   80.344215   59.322933   52.227463
H   28.862373   10.347065   51.818844
H   70.740471   36.213413    7.572024
H    6.817008   98.456947   78.843781
H    8.973045   50.789169   58.636318
H   60.028839   43.238796   50.461391
H   58.086559   57.375069   79.370407
H   44.382633   38.537117    6.983040
H   17.736670    2.175184    6.943756
H   64.991074   61.717651   73.751099
H   52.806675   89.162689   86.526733
H   49.097408   23.662626   36.557568
H   60.183086   39.670933   37.280701
H    6.980081   16.742554   76.204712
H   60.074448   18.118349    8.674937
H    9.897893   68.161552   62.941399
H   76.914520   99.459358   50.981377
H   23.530006   25.609310   43.174610
H   92.483170   28.550697   37.133205
H   21.133633   11.342646   91.720886
H   81.600159    4.242418   35.985893
H   50.204811   69.792480   57.098827
H   35.412334   82.481583   93.716080
H   72.663261   77.348953   71.533920
H   76.875824   95.916687    4.732414
H   97.294914   47.028862   23.174496
H   36.619682   49.266239   82.013626
H    0.693060    9.089279   63.384136
H   78.593697   24.099436   70.503258
H   91.866135   53.200050   84.734512
H   83.553902   80.996689   44.439617
H   16.867752   29.963223   65.344887
H   71.021332   90.287155    3.754359
H   48.933327   25.003651   72.885979
H   84.009941   93.409035   78.878860
H   96.811028   35.236511   83.368629
H   27.278244    6.528709   96.672928
H   96.042000   62.268776   21.432680
H   10.006613   60.651657   65.206238
H   47.485966   58.909763   64.224808
H   42.231010   34.895275   80.136971
H   48.612057   81.749619   26.114649
H    1.501632   14.740552   55.126064
H   37.147709   58.861240   30.955276
H   88.909698   59.481293   22.199003
H   75.042496   10.096351   31.169329
H    8.683568   82.369118   99.517715
H   32.309795   99.731506   50.266354
H   13.473532   11.284519   83.249718
H    9.228086   38.956505   99.374290
