100
TIME:    2.820, STEP:  2820
H   26.616913   63.412956   96.564224
H   22.826881   57.642006   55.884724
H   28.228033   76.786301   90.235664
H   81.949936   16.466173   85.589539
H   69.912567   98.792953   89.243484
H   84.290779   98.152977   58.020649
H    5.174931   51.758438   10.980613
H   98.239853   32.567730   49.271519
H   84.306953   15.162016   22.577694
H   97.778740   56.874382   18.117220
H   37.945496   79.711441   68.111969
H   48.210373   65.042709   92.198784
H   63.880684   91.093323   44.843689
H   15.451095   96.383827   71.844093
H   14.802048   18.133558   15.216992
H   88.137848   65.081573   98.956398
H   97.339424   68.490570   30.104074
H   61.406998   57.564064    1.779190
H   89.188530   96.654343   11.931856
H   16.544128   45.928234    8.331293
H   96.933929   75.477875   80.702515
H   32.736496   47.827576   79.129242
H   48.092964   71.687340   51.667221
H   57.032959   70.503174   97.635231
H   28.723976   62.520287   57.367996
H   33.728535   43.581875   24.853155
H   18.906693   25.252493   55.926258
H   94.598839   88.067787   59.988140
H   72.488846    4.944709   23.868967
H    9.125150   21.045334    7.570807
H   27.039251   74.929840   86.269524
H   43.813637   74.596642   38.202522
H   68.995575   62.157600   51.844826
H   97.252342   15.286469   52.948563
H   10.673444   45.749817   96.447746
H   17.742413    6.010037   10.946076
H   50.273285    1.260360   30.670164
H   47.434509    7.340058   21.441441
H   26.039276   19.973665   71.033340
H   97.581253   48.184662   59.906986
H   42.524395   52.942966    8.784259
H   78.175621   38.421707   35.286575
H   35.531147   80.410645    5.165634
H   99.283661   60.035759   56.457947
H   12.041864   20.629131   97.425514
H   41.705715   16.703968   94.619728
H   63.765690   78.198639   52.529488
H   56.390018   24.417849   43.063530
H   47.459747   98.897942   31.982569
H   85.026573   73.666756   86.430206
H   43.329472   97.390320   83.150467
H   42.178852    2.063828   88.933800
H   67.376564   38.360046   39.088272
H   11.390377   61.199715   56.255035
H   16.259613    5.720978   24.334059
H   97.094681    9.568266   96.627350
H   75.026741    8.176950   24.193031
H   16.073334   10.573234   40.919754
H   12.684784   57.920788   94.990105
H   72.927017   44.543110   83.403084
H   37.588875   47.428082   94.526932
H   98.827293    1.694258   67.760193
H   65.512825   14.850214   40.095383
H   36.683601   57.134598   50.579670
H   44.253307   35.615147   58.183083
H   28.108009    2.082378   12.925343
H   61.314705   45.856541    3.211233
H   85.568977   78.815735    1.014907
H   97.449455   47.159111   83.367195
H   87.517883   89.980537   95.795013
H   32.485664    3.526529   28.321602
H   41.445145   57.934814   63.090210
H   23.122557   78.817131   89.441399
H   68.132866   70.925369   35.607567
H   98.135887   32.657986   15.173016
H   92.323143   88.308342    6.179928
H   22.992334   82.128311   40.922886
H   64.469055   66.329094   70.179245
H   96.743042   45.235500   49.143921
H   61.227242   55.371868   77.975723
H   66.066635   58.455853   48.533253
H   52.912552   62.644302   50.971046
H   96.220840   54.327271   98.491058
H   44.161549   53.472626    5.854016
H   15.018514   72.492706   74.385094
H   86.388489   12.636890   37.612667
H   55.496147   98.315941   58.011810
H    1.351275   79.518463   66.416878
H   14.205498   37.158592    5.128581
H   17.012356   93.251785   25.026493
H   39.428650   25.704086   93.014969
H   86.942520    7.586832   87.257195
H   66.220703   12.130899   37.078590
H   19.791134   84.286919   16.957165
H    7.833578   97.130493   80.887810
H   26.842056   84.372932   21.792511
H   38.763687   29.514400   75.008720
H   17.218573   40.248291   10.913914
H   74.375206   49.006207    8.832741
H   14.372818    6.269212   26.079508
