100
TIME:    9.620, STEP:  9620
H   66.760651   39.821602   90.338638
H   34.794510   26.157536   84.676994
H   45.129826   66.005241   10.415688
H   83.091293   36.307365   12.857089
H    8.995790   43.842407    4.868849
H   78.841309   90.786034   31.446358
H   48.785107   10.925845   42.749706
H   63.773270   20.854511   24.917046
H   17.149910   61.368179   94.542381
H   12.001211   54.513950   84.382637
H    5.426029   53.322601   13.100168
H   88.672035    5.891479    8.167271
H   30.314285   79.702446   69.097824
H   78.756851   75.424355   89.325996
H   97.450508   10.726997   88.274681
H   14.723427   70.328537   34.497131
H   50.523872   18.259583   49.134903
H    6.785079   26.729546   66.047928
H   95.103271   81.924316   70.180954
H   33.335880    1.522388   71.306938
H   93.411789   98.516060   96.139801
H   84.659119   56.854675    0.046444
H   57.301338   16.390711   57.111252
H   25.220818   51.911346   92.609207
H   85.518539   23.246185    7.582130
H    2.245863   42.505905   85.597206
H   32.535294   42.585255   90.840500
H   20.834272    5.468786   84.758568
H   20.348965   21.893618    2.430155
H   69.866631   52.744553   48.150734
H   94.662453   84.699661   48.275314
H   73.170029   86.721405    8.692451
H   47.977921   64.637390   64.442528
H   84.569656   92.107170   66.476112
H   41.540627   31.300972   10.340783
H    8.887751   38.913387   89.183235
H    2.482577   52.230232   66.483719
H   66.377495   82.904274    1.298836
H   39.009144   71.813805   12.063087
H   57.096249   11.590186   94.916031
H   77.792801   86.268127   68.987511
H   89.492424   79.328690   71.075920
H   94.076874   21.196865   96.335930
H   65.081947   74.120644   21.326183
H   22.189672   52.345371   79.321838
H   53.952255   46.397594   22.243658
H   16.902767   48.009350   17.813711
H   56.774776   94.452881   63.808262
H   46.230865   35.721699   60.730331
H   27.706953   77.162590   10.902071
H   44.847462   41.045929   51.756790
H   72.660965   71.075211   42.543098
H    8.410673   77.788757   44.158279
H   53.911224   50.247337   56.320015
H   74.836037    1.655102   82.160187
H    5.577457    2.414417   65.139282
H    6.119065   11.965500   70.929482
H    9.731145   68.396767   65.766014
H   48.988934   45.250381   72.958611
H   24.198399   67.214417   89.994911
H   66.541443   31.197088   64.351280
H   57.485313   38.400467   60.082581
H   27.165054   50.836098   73.800186
H    3.627567   94.167206   65.959702
H   14.156470   92.509132   91.437019
H   10.378006   64.034904   14.994300
H   15.737827   80.949646   31.516514
H   15.846751   67.715462   26.094238
H   36.361824   58.554489   56.884388
H   25.402176   31.831964   81.439758
H   16.546082   40.852757   46.757942
H   81.083199   32.179100   61.186665
H   79.750214   42.465229   15.091335
H   18.437298   40.570248   31.565252
H   25.875402   42.480183   30.696356
H   53.082710   24.124138   48.624809
H   40.484322   93.164352   61.358200
H   83.937126   21.700615   45.727402
H   22.827887   25.261745   25.016870
H   27.751209   84.971931   92.149727
H   99.143135   28.805674   54.957726
H   63.171707    6.864494   82.194283
H   26.359297   67.998695   46.103703
H   11.990167   35.363846   84.779015
H   83.917679   47.130585   15.203038
H   29.886562   62.414917    9.825259
H    9.652971    3.899539   82.261848
H   10.744219   35.275307   95.836700
H   55.327396   58.545921   49.511604
H   15.801389   13.482346   68.106262
H   17.713369   92.882645   36.618919
H   90.081482   18.995424   16.826784
H    2.114160   16.162008   62.933952
H   74.992653   96.654282   78.542397
H   90.265793   88.028419   37.142036
H   88.494125   15.849150   70.563354
H   99.012352   19.750370   83.932846
H   19.708483   62.456356   85.754112
H   50.438347   78.343681   39.262051
H   36.746391   31.770706   71.015503
