200
TIME:    0.050, STEP:    50
H    3.632838   63.105564   12.090694
H   26.270807   30.104137   82.183937
H   22.120064   60.821884   35.989677
H   11.438006   74.752998   49.468147
H   17.227531   78.913727   56.390244
H   95.799622   57.971893   71.173820
H    0.606514   55.438942   45.973766
H   98.630943   80.681732   31.816525
H   79.712334   90.354660   52.354465
H   17.549587   77.560326    3.566587
H    5.571066   90.535347   86.957489
H   29.992126   36.951469    3.689116
H    6.510859   80.702187   69.078850
H   13.384586   52.405315   33.110226
H   28.795206   70.481956   43.446083
H   34.838528   33.794849   58.421707
H   75.269272   98.819870   24.656845
H   41.074013   74.033203   46.902973
H   58.703785   36.580318   39.686859
H   89.451775   82.313927   44.836063
H   55.804878   67.273621   34.545231
H   94.258919   41.551949   77.896545
H    0.694883   63.922913   53.695152
H    4.614593   86.377388   92.191582
H   94.988136    5.062300   52.190060
H   18.818373   53.904766   13.231802
H   95.216713   54.984348   41.442551
H   90.149933   62.291367    0.231335
H    3.066215   62.304878   39.450920
H    1.635413   15.674490    5.198109
H   13.609552   43.511326   15.962517
H   35.381138   59.053207   88.925316
H   31.714134    4.897165   70.858368
H    2.715164   63.370628   34.969299
H   57.106327   97.651962   35.664326
H   39.267654   54.254036   77.297752
H   80.811127   78.529877   84.528542
H   42.313290   39.840496   23.710209
H   60.102188   53.204243   40.208267
H   91.904877   40.469814   71.118256
H   80.449051   14.102338   95.217674
H    3.882258   47.091072   45.464951
H   80.122879   92.146629   43.273151
H   37.704544   54.006622   11.953044
H   22.285402   70.498260   37.507378
H   43.733551   18.783314   40.621494
H   76.393677   35.520691   92.012901
H   94.741447   65.553505   54.478104
H   79.732422   35.962399   61.029346
H   68.916153   16.944075   13.750893
H   82.728043   72.900978   35.398602
H   28.401262   32.427715   59.455986
H   47.053207   99.859627    5.442458
H   25.234371   78.174149   78.889519
H   85.241196   80.610474   96.918144
H    7.741320   77.030769   72.426605
H    5.972719   16.026466   51.692707
H   65.332870   54.162510    8.732724
H   32.190334   70.807114    2.531120
H   47.497707   97.056068   70.506577
H   51.034866   19.083357   47.787689
H   86.522919   15.974796   47.610073
H   66.212860   21.270483   91.294983
H   19.522518   64.881264   99.425468
H   68.294098   73.246582   10.160053
H   46.192741    9.179644   29.448074
H   93.272316   27.169727   81.909645
H   98.405418   91.017952   83.509880
H    9.764326    3.285670   64.384666
H   46.330677   38.318409   50.992741
H   58.548515   73.305923   68.199097
H   37.480038   28.816015   46.094822
H   71.463516   22.378338    5.857653
H    1.675437   13.140946   55.041737
H   76.831497   97.795662   76.546509
H   48.511284   25.784557   64.118973
H   96.230652   22.876947   74.833107
H   33.592533    2.510122   54.464577
H   10.086048   21.228212   39.146603
H   71.139023   91.726593    3.272327
H   35.304058   33.313095    3.953880
H   18.282139   72.006920   93.730949
H   11.740994   11.582160   95.838875
H   30.869955   55.646675   87.658905
H   45.674156   97.314728   63.166679
H   19.314259   92.422119   31.738014
H   27.339632    2.388191    1.335746
H   76.911537   25.615782    4.275851
H   59.876030   71.578102   76.474876
H   24.395782   77.530846   56.955807
H   49.207169   33.252590   81.599594
H   85.378899   86.868439   94.222031
H   38.233852   19.004948    1.141080
H   68.548187    1.259744   63.887630
H   20.310467   59.496315   60.026497
H   77.140419   23.461288   37.994869
H   76.728233   20.850866   90.146317
H   12.117910   25.486267   46.794636
H   41.323174   71.681335   52.207916
H   63.900829   94.839767   27.204020
H    1.389199   75.173096   59.992630
H   83.507027   73.782043   66.912651
H   19.240873   44.113464   27.847565
H   12.746054   67.588684   82.617279
H   25.590605   29.969643   18.927525
H   79.901207   36.075390   52.786148
H   56.657833   27.737581   57.143478
H   65.870277   26.979340   26.088465
H   67.967995   42.487991   89.945122
H   98.263489   30.709505    4.607356
H   44.694733   97.717857    0.662172
H   78.364792   58.566742   88.346931
H   60.394020   78.069839   98.068138
H   63.867790   23.493511   79.853577
H   70.190742   74.056732   33.434666
H   21.792370   11.355745   70.362991
H   40.386753    5.767244   81.965134
H   41.735088   17.644482   37.776421
H   11.646670   50.580204   92.930069
H   65.768517   42.882748   42.255013
H   38.571541   20.496845   93.745796
H   26.487225   31.980991   42.599289
H   27.655706   29.835873   18.392801
H    6.876641   74.156517   26.185459
H   82.600090   13.653315   99.097183
H   40.761440   57.153492   29.199923
H    0.109365   48.302780   78.392563
H   79.584633   86.079796   33.397884
H   90.129539   59.361225   89.220177
H   58.535980   25.049900   63.264687
H   40.939201   91.969757   96.150391
H   88.992867   84.166916    4.846382
H   93.058174   73.350731   95.961807
H   10.237247    8.131445   47.368187
H   95.039978    4.805577   65.147736
H   67.418579    1.870698   86.480751
H   68.578156   86.080360   45.880119
H   89.597710   70.152626   86.200462
H   41.346954   41.676544   71.595024
H   43.345024   18.202608    0.736976
H   41.211300   68.656693    8.772582
H   65.985092   35.237854   41.817684
H   61.113327   53.263866    5.792719
H   66.419289   33.405540   74.975929
H   31.371044   76.068420   42.855625
H   38.978500   58.701843   38.945938
H   40.237541   97.609856   48.642330
H   47.840508   80.491219   69.915062
H   60.105930   72.724411   99.833267
H    3.374599   86.551239   97.097466
H   82.917305   58.083172   52.778561
H   25.789564   12.366968   54.106499
H   67.349228   38.943005   10.134804
H    4.887261   96.781097   80.647728
H    6.078297   48.861301   57.315521
H   57.861763   43.057789   48.215508
H   57.322430   55.185993   78.506027
H   43.344765   39.708374    5.272764
H   21.077787    2.450246    9.650874
H   65.809227   64.696198   70.949661
H   52.089607   92.128426   88.467690
H   52.524853   24.040932   37.189980
H   57.040798   42.853600   37.311054
H    4.300545   14.597988   79.328064
H   60.773415   15.641332    7.957661
H    8.640170   70.484016   63.340450
H   78.171547    0.639968   50.207500
H   23.466236   22.287964   40.155964
H   91.491249   28.788095   37.305580
H   17.802261   11.893535   92.542938
H   82.994751    3.374279   35.992020
H   52.726662   72.503693   56.874657
H   34.001869   85.618301   95.770096
H   73.561058   79.098877   69.843033
H   80.268738   96.465836    8.164626
H   95.040955   46.634544   23.104460
H   37.369610   46.985825   78.959892
H    0.046076    9.019661   62.450695
H   80.460579   25.796450   71.357056
H   95.338692   52.416985   83.704720
H   84.886673   78.380714   46.136909
H   15.395355   29.874111   62.679905
H   74.381943   90.362900    2.309555
H   47.343803   24.868452   70.200386
H   83.065918   96.575272   79.179611
H   95.282768   34.620529   83.003273
H   24.736483    7.779157   95.055557
H   99.549088   59.176891   18.878387
H   12.120640   60.326122   64.371933
H   46.158485   59.306866   63.302509
H   38.743694   37.310471   80.658272
H   49.210495   79.765778   27.044470
H   99.880150   13.003856   53.453835
H   38.423115   55.947578   29.483965
H   91.414841   62.741932   22.437794
H   74.864273    9.917223   32.169487
H    8.198329   80.378593   97.053787
H   34.431480    1.182170   52.325104
H   14.447003   11.080259   86.514534
H    9.989500   41.429623    0.388554
