100
TIME:    2.911, STEP:  2911
H   20.463207   55.067772   96.480911
H   20.295555   62.576218   61.624989
H   29.792234   83.333313   89.167870
H   81.965210   12.716742   80.601868
H   69.097488    6.086988   86.776031
H   82.880013   98.054390   67.032799
H    0.405702   57.903465   18.096931
H   91.087433   40.440113   40.915920
H   82.070000    6.412590   16.849579
H   95.291847   58.181007   21.680933
H   29.480896   83.373047   59.346424
H   44.736916   69.604095   85.721199
H   58.092514   85.587723   35.799370
H   10.945424   96.103340   78.768791
H   15.909069   10.005206   10.842540
H   84.479019   57.122406   91.402687
H   90.021767   74.509933   38.388165
H   63.351662   53.138756   98.624207
H   90.606239    0.471541   16.725824
H   14.092644   43.996067   14.527002
H   91.533859   66.418976   78.232285
H   41.460754   47.948380   71.379745
H   46.877983   70.947243   49.063690
H   48.578079   71.594574   90.877159
H   25.469563   55.303299   58.039360
H   33.311275   40.870731   16.323641
H   11.059650   21.469736   57.732067
H   86.920158   92.315361   62.996433
H   74.467529   13.200852   19.567587
H   12.614402   18.793106   14.804810
H   30.620668   83.090347   79.069893
H   49.559456   72.081978   29.778191
H   75.405121   55.499504   60.042824
H    1.097290    6.947001   49.114777
H    8.411323   38.870941    1.989212
H   25.654716   13.158663   10.633306
H   59.001015   97.927719   37.840633
H   43.673622    5.674579   27.862789
H   22.197853   17.991163   62.214661
H   89.009735   39.665215   67.066750
H   36.305080   56.065121   10.928006
H   69.997063   42.506126   39.561920
H   36.314983   80.956345   11.738545
H   93.472580   61.561081   65.355186
H    4.148306   17.039036    5.212730
H   40.531696   18.439655   94.989082
H   64.476852   83.147430   53.403580
H   56.394878   25.354773   48.694099
H   50.119514   91.360893   28.352552
H   86.934441   75.051140   80.065094
H   43.322529   88.604965   84.109955
H   46.601383   93.619949   82.960258
H   69.263603   38.887695   33.802757
H    9.283253   59.714661   60.270721
H    9.014387   13.696456   25.107626
H   97.208542    9.472630   93.529495
H   80.796165    5.551028   32.847862
H    9.297383    1.979264   38.575882
H   19.861504   61.765682   88.004311
H   66.921539   51.537930   80.814827
H   43.329140   43.196476   87.431442
H   95.597527    0.847071   63.643082
H   71.689125    8.641415   33.854477
H   42.932770   57.629616   48.108746
H   47.865620   28.346958   66.657875
H   22.517708   97.558510   18.305725
H   54.013710   49.002300    7.604873
H   79.283012   84.020020    5.365233
H    1.984708   40.620430   77.660255
H   89.361877   94.557198   95.603394
H   29.595802   97.334862   27.229855
H   33.942116   54.914719   69.752563
H   17.188936   74.315453   87.108635
H   66.130577   65.167053   30.199165
H    2.523456   32.787815   22.071678
H   94.474007   94.140251    0.056880
H   31.254553   74.241348   42.532215
H   68.744400   60.378735   75.204407
H    1.107111   44.968204   50.159645
H   56.764442   50.415440   70.135971
H   67.846756   59.397289   53.972202
H   59.740746   63.238602   43.361794
H    1.977953   55.846344    7.158262
H   50.421825   61.259613   97.542572
H   10.587478   66.801041   65.563637
H   84.294556   15.979477   43.931957
H   61.573830   91.699501   62.351028
H    2.815848   72.232742   65.469887
H   16.094109   32.091774    4.384058
H    8.966599   89.508255   28.279518
H   43.152740   30.617817   94.936722
H   93.675598   14.430126   88.991493
H   72.055374   14.860651   44.116539
H   28.586903   89.806404   23.092819
H    6.260091   88.979706   82.978966
H   34.358276   80.779366   17.092270
H   31.540474   34.736736   69.775276
H   17.552519   41.023102    9.457846
H   70.040154   49.398472    1.210219
H   20.024866    3.933945   17.313406
