100
TIME:    1.984, STEP:  1984
H   83.152740   40.078354   97.329605
H   46.081703   12.313711    3.150367
H   13.858007   16.640934    0.045321
H   81.809616   50.909752   31.412979
H   77.400543   31.783863   11.910673
H   97.251228   99.058678   75.228416
H   48.988216   95.306099   45.604240
H   63.947807   60.242153   26.029518
H    4.857491   95.539780   75.202080
H   20.622477   44.870659   85.381065
H   15.708176   46.072956   48.640194
H   80.117157   23.138109   51.705513
H   17.060490   41.672722   27.935741
H   56.845421   98.960609    8.222599
H    4.632313   92.808624   55.404564
H   21.752735   38.201302   68.352310
H   64.556824   13.202095   53.992020
H   43.541733   98.218544   30.764801
H   76.164299   61.586700   67.885803
H   39.065460   63.678692   51.412575
H   46.543259   58.704731    3.395561
H   52.586735   46.718590   50.321564
H   59.254768   78.486473   75.585373
H   34.706444   60.476688   59.726181
H   58.624504   28.824867   51.200302
H   37.561817   68.489792    3.212322
H   90.996223   60.006542   39.336628
H   65.136734   49.046124   32.352283
H   54.311050   29.095713   63.387474
H   77.068947   41.736130   41.110531
H   94.146675   99.960449   52.416645
H   91.028259   97.698387   15.595222
H   10.107460   23.323170   76.531342
H   61.930016   91.901077   88.168839
H   31.456314    8.944989   45.539474
H   45.055981   40.337719   13.819444
H   70.089691   31.878748   64.796753
H   81.988396   22.641262   62.445492
H   61.528984   38.155449   51.970688
H   76.322273   26.447550   94.130997
H   99.657799   24.259459   89.086716
H   53.310577    0.899402   96.011856
H   28.330191   75.397400   44.779457
H   52.667183   46.022911   74.718430
H   84.558006   53.610668   25.886610
H   52.491207    0.758548   91.226540
H   57.029285   32.766579   44.576363
H   56.345371   15.810503   91.336632
H   23.024961   68.133568   65.333786
H   67.499352   60.947147   44.900486
H   43.393253   78.100975   74.335831
H    1.552275   79.639099   43.816608
H   50.035553   33.512634   87.642204
H   30.748135   74.837563   19.364771
H   82.814056   32.432705   17.241529
H   96.048660   10.446859   25.086761
H   22.029169   32.299721   44.682411
H   78.324310   89.523026   62.452469
H   46.750092   22.597612   59.171577
H   28.095341   80.284973    7.180486
H   84.852676   86.306709   59.706409
H   28.495495    9.477224    5.583587
H    8.805756   71.859291   97.447922
H   79.277649   52.586960   73.276985
H   11.069678    2.384729   80.327637
H   79.465065   43.642464   63.494915
H   28.388910   16.955374   62.849926
H   43.317406   31.004879   61.049274
H   55.785965    7.228729   35.799675
H   70.577454   47.933182   97.555389
H   59.031624   60.409119   38.352482
H   10.377643   85.679871    1.880380
H   77.630951   20.170101   10.875233
H   86.527519   23.827742   85.293541
H   57.826805   31.466696   51.798809
H   72.563560   34.728195   62.430256
H   47.089615   54.587776   26.137014
H   25.192257   20.991358   24.008495
H   56.652618   47.690281   39.813438
H    2.226185    0.900550   49.997780
H   49.707424   49.807049   98.568199
H   90.184616   57.184586   20.876764
H   43.330532   40.371826   18.865940
H   86.651375   81.935036   82.213409
H   55.725311   24.783546   55.425873
H    5.626697   81.931007   79.558174
H   99.661583   59.099960   18.148222
H   87.893646   46.450653   75.116707
H   96.855171   83.706505   11.967913
H   90.926041   27.648026   95.141731
H    5.216060   80.561295   75.360184
H   25.083338   44.720997   71.324516
H   12.581421   87.079697   72.402725
H   38.989155   33.576611   60.588318
H   22.289700   72.015625   61.676750
H   57.791855   17.385439   64.972748
H    5.122079   81.538277   23.087830
H   14.149711   33.130249   24.291527
H   14.199955   45.402538   78.860062
H   62.454453   27.741993    6.597989
