100
TIME:    4.223, STEP:  4223
H   31.737473   34.750641   95.279739
H   83.846840   33.702019   44.379768
H   52.344238   77.723732   73.772850
H   82.185425   58.662834    8.685378
H   57.346024   11.249576   51.201324
H   62.539448   96.633003   96.963554
H   31.643333   46.495487   20.697107
H   87.966820   53.944309   20.451710
H   49.818535   80.269104   34.263905
H   59.436867   77.019386   73.059296
H    7.441849   36.163944   32.969036
H   94.659157   35.367653   92.331718
H   74.588791    6.216564    5.403615
H   45.982460   92.059395   78.612579
H   31.869640   92.812286   47.777279
H   31.727528   42.370110   82.495056
H   84.518532   61.287975   57.824699
H   91.379234   89.336037   53.137440
H   11.043011   55.515076   85.846420
H   78.742149   16.136038    3.854102
H   13.677902   35.804539   42.623550
H   67.243469   49.690079   59.650818
H   29.360893   60.276833   11.524636
H   26.679070   87.329926   93.435852
H   78.545685   51.255241   67.727638
H   27.295504    1.810991   93.306938
H   97.924507   66.933975   83.759865
H   76.216858   53.555069    6.360070
H    2.995562   32.235226   57.548531
H   62.921722   86.320213   19.104904
H   82.257378    0.740670   75.268623
H   32.399883   35.834389    8.319756
H   67.820900   59.507423   78.238144
H   56.533493   86.710052   93.843605
H   75.798615   39.693779   81.879395
H   39.735508   16.192722    6.151819
H   84.839493   49.880844   41.221119
H   89.448051   81.669060   20.447330
H   66.820404   89.406425   35.071815
H   65.433083   16.839912   70.292114
H   46.639282    1.087066   41.837749
H   52.081955    1.387422    1.201995
H   47.616009   88.824020    6.506065
H    9.692175   83.543640   93.637451
H   90.341682   65.271088   17.484236
H   23.605183   43.464069    0.314764
H   74.726852   54.499168   66.004280
H   56.464947   38.865494   29.873207
H   88.473312   82.700714   76.018066
H   14.446521   95.010612   88.302467
H   43.222431   61.940147   97.943451
H   10.362776   71.877151   96.828888
H   96.470146   46.495117   57.605213
H   78.896660   38.303772   18.165649
H    4.552830   28.681787   36.265423
H   98.850143    8.091619   48.865921
H   63.970097   67.693794   57.629906
H   11.602401   78.077278    4.779713
H   23.335943   17.200768   87.281273
H   80.344009   52.382740   43.498421
H   26.090982   82.182640   85.137520
H   49.032097   88.634995    4.275578
H   60.761074   19.113102   43.886681
H   33.024979   64.767654   12.483990
H   99.939522   23.559628   88.838387
H   41.919472   32.334877   95.880524
H   48.749557   94.363251   70.948593
H   88.654152   59.055252   68.086418
H   67.377548   46.348480   95.372650
H   15.944723   60.548790   92.840698
H   87.932564    8.066652   11.489498
H   25.761780   11.371972   65.811302
H   31.644541    9.420551   53.472687
H   37.245922   82.140144   52.237480
H   65.777351   34.659641   21.530199
H   25.491442   78.228111   11.775648
H   50.376434   60.525860   65.734856
H   30.384548   74.589775   47.661217
H   64.018974   41.114445   64.803383
H   92.421204   78.960884   57.105980
H   93.511795   72.970535   32.387142
H   58.182747   71.806961   33.653320
H   84.986000   77.747711   32.119915
H   40.685646   73.530220   77.710739
H   46.704620   84.733635   38.379852
H   54.101818   64.174797   35.041260
H   49.199348   96.306412   24.912580
H   23.931448   67.190666   51.825500
H   43.323593   59.042183   93.652107
H   92.968399   35.530319   75.178055
H   96.845123    1.462202   22.643839
H   90.755661   13.092382   13.994101
H   56.155968   54.229134   45.575603
H   55.397526   69.390167   11.554235
H   83.576897   71.459679   13.127286
H   42.724091   28.969112   49.325569
H   27.400246   10.029859   94.320068
H   22.367216   52.194000   88.460716
H    7.539186   55.053989   91.315956
H    1.518815   70.262123   90.924988
