100
TIME:    3.978, STEP:  3978
H   48.306061   57.218445   95.504044
H   90.614220   20.424841   28.930708
H   48.132927   60.097160   76.647682
H   82.144302   68.756523   22.114912
H   59.540466   91.611748   57.844467
H   66.338387   96.898430   72.701317
H   44.482906   29.951183    1.537724
H    7.223343   32.749432   42.947552
H   55.841103    3.824847   49.686687
H   66.132347   73.501549   63.466446
H   30.231155   26.305775   56.567707
H    4.009674   23.087000    9.770929
H   90.221909   21.033043   29.748417
H   58.113579   92.814552   59.968761
H   28.889198   14.696497   59.555119
H   41.578247   63.798637    2.832070
H    4.219988   45.083866   35.521385
H   86.145470    1.250355   61.632961
H    7.227083   45.236336   72.937714
H   85.344170   21.338961   87.173393
H   28.216553   60.195751   49.272301
H   43.755081   49.364838   80.514847
H   32.631996   62.269402   18.534779
H   49.442207   84.391541   11.631639
H   87.308502   70.684952   65.918251
H   28.415815    9.079337   16.312853
H   19.051085   77.117386   78.899940
H   96.890228   42.119293   98.261589
H   97.668137   10.007476   69.130104
H   53.527115   92.383904   99.628662
H   72.616035   78.770119   94.652245
H   16.930372   42.602768   31.000648
H   50.562977   77.433067   56.166611
H   46.181854    9.162779    4.165017
H   81.888474   58.213829   66.959427
H   18.434778   96.977936    6.955601
H   61.340103   58.853012   21.916006
H   99.575386   86.151405    3.158803
H   77.160828   94.744865   58.814415
H   88.510246   39.776268   51.015644
H   63.383591   92.679611   36.065655
H   74.101151   90.392578   89.691513
H   45.505680   87.354828   88.808891
H   25.336458   79.438873   69.681763
H   11.593992   74.938599   96.518494
H   26.766003   38.791065   99.319862
H   72.812790   41.175499   63.652550
H   56.451862   36.342072   14.713982
H   81.310532    2.992502   85.790253
H    9.308085   91.283424    5.438758
H   43.241123   85.593025   95.360214
H   98.456772   94.610382   12.912907
H   91.389656   45.074524   71.834419
H   84.571556   42.301994    7.355120
H   24.059586    7.210268   34.181263
H   98.543594    8.349569   57.206299
H   48.438900   74.763115   34.328438
H   29.845695    1.214289   11.090605
H    4.014006    6.848582    6.089489
H   96.512604   33.550533   50.466805
H   10.635651   93.577293    4.240438
H   57.727623   90.915421   15.361424
H   44.127048   35.831963   60.687065
H   16.201174   63.433838   19.136478
H   90.215935   43.127895   66.022911
H   56.970284   44.514595   81.394211
H   68.406082   85.892029   59.120281
H    5.578058   45.043716   56.374004
H   55.166573   63.952621   10.738499
H   10.981058   48.225143   93.356598
H   95.712181   24.736904   14.428818
H   45.962532   19.503265   47.872761
H   47.618759   21.538586   59.755074
H   42.640438   97.643303   66.794823
H   53.965588   34.310101    2.956942
H   19.698786   62.526642   28.260952
H   28.131227   81.760300   61.402042
H   18.874004   90.608833   34.130066
H   52.271042   41.834087   62.069290
H    4.436517   92.303246   78.213005
H   88.719162   70.435898   17.744726
H   39.799149   70.206924   54.139771
H   69.486580   73.657898    8.784801
H   23.830603   52.565254    0.088815
H   58.633865    0.057354   62.129929
H   59.741199   55.174629   18.027786
H   32.836357   14.119926   13.229959
H   19.988367   86.806068   54.373222
H   38.239365   72.683617   95.655891
H   14.629638   45.610924   66.418976
H   86.818726   88.232109   17.469889
H   72.628143   94.668510    9.325371
H   40.450935   46.877563   26.629374
H   31.716610   54.528824   95.034996
H   87.812508   93.404106    7.497718
H   22.488113   38.643806   61.980064
H   46.847198   95.970055    8.410391
H   21.468130   50.107971   92.382301
H   19.210472   53.997890   11.837128
H   86.299934   76.550117   14.526389
