100
TIME:    8.307, STEP:  8307
H   55.553459   60.229607   91.540726
H   71.057480   55.009480    1.887469
H   22.560633   71.542877   25.828358
H   82.870911   90.401299   84.827950
H   20.761221   38.599934   40.467636
H   99.196655   92.208504    1.415685
H   17.600677   22.265985   40.071384
H   66.972473    7.263620   45.473076
H   49.425957   87.608414   77.191803
H   47.866280   35.661213   32.973366
H   27.558121    0.492966   39.577240
H   38.786797   40.077450    1.628215
H   14.040003   59.173492   99.580658
H   43.767891   79.471382   89.406105
H   81.502815   28.010635   51.416336
H   67.516739   85.168297   43.487579
H   56.107521   31.414257   29.607336
H   78.704498   90.620491   11.565239
H   74.647751   26.841923    1.008211
H   68.708633   29.405802   81.911812
H   71.327568   29.229206   31.778322
H   58.780521   55.111649   11.860458
H   74.831779   27.064245   94.676483
H   47.218147   36.204071   90.123779
H   32.477486   27.373550   97.889015
H    8.439220   81.213120    9.156214
H   45.757324   97.163956   64.795273
H   31.621466   44.182377   41.357986
H   91.798256    2.768319   64.495659
H   19.520443   85.240982   43.770935
H   42.988659   66.959557   52.155678
H   90.266441   22.998890   30.243446
H   55.491650   60.702629   46.157120
H   29.093060   12.435659   21.790339
H   74.217369   30.713524   30.456808
H   94.751343   36.069832   93.310402
H   76.547905    0.313761   63.024441
H   20.649128    6.928257    8.644034
H   94.429893    0.423415   39.302010
H   80.766541   34.509636   91.612000
H   67.526947   41.214951   38.053799
H    0.145070   74.179062    4.048289
H   82.777252   13.319036    1.497452
H   48.913265   52.076958   92.949860
H   36.085197    4.142729   66.963676
H   70.895744   21.356236   16.909395
H    6.637146   76.600838    5.204900
H   56.694637   80.929398   82.567650
H    7.854220   44.463905   13.103735
H    0.147664   57.171291    2.706447
H   42.931194   67.656242   40.995743
H    8.848618   92.910782   28.734062
H   81.181145   70.175537   20.414530
H   84.320709   71.670959   98.382156
H   79.379005   86.590683   71.000809
H    3.942117    3.795566    9.836914
H   22.880043   49.851555   46.052330
H    7.499742   92.393303   99.584740
H   45.430584   89.768593   73.758408
H   10.843318   66.292908   27.339745
H   83.712296   92.257812   66.715828
H    4.086281   50.621689   19.488682
H   38.022762   40.428619   63.834534
H   13.466183   87.014786    1.601983
H   62.044212   97.377258   69.163635
H   91.036903   29.307640   37.359028
H   21.082457   35.557087   68.124069
H    6.544424   92.623039   63.325241
H   70.923126   52.898293   39.232552
H   98.735588   65.881668   84.224594
H   58.246639   30.192539   62.505287
H   89.206161   75.774803   64.944565
H   65.359222    7.413988   48.759800
H   47.337482   23.670193    9.580206
H   62.627609   40.546825   31.143866
H   22.038805   39.973694   36.973747
H   21.235706    6.807783   38.067757
H   22.255995    7.549694   73.207642
H   59.862312   29.118443   10.362385
H   92.142693   56.497948    5.265779
H   73.438499   15.222085   76.480972
H   64.645706   98.342651   92.040581
H   43.310898   46.040562   21.059528
H   21.658089   23.007265    4.701828
H   47.848694   29.268055   42.482460
H   60.109043   14.183009   18.646683
H   21.960604   99.365578   19.653130
H   89.628441   40.339783    9.447334
H   28.079361   31.651217   60.250252
H   31.888132   67.505508   21.172735
H   63.979359   21.985462    8.890769
H   92.932777   20.245178   91.809761
H   17.948048   76.769554   61.397644
H   50.104691   17.148914   86.927071
H   12.967655    5.638438    6.973050
H   80.045715   67.697632   38.381706
H    3.232086   44.400307   59.445564
H   22.242884   97.490822   12.117590
H   12.986594   72.673836   49.239735
H   55.189861   65.459671   97.499908
