100
TIME:    1.570, STEP:  1570
H   11.149881   78.044357   97.708633
H   57.597847   89.867912   77.035393
H    6.741681   86.856483    4.905532
H   81.740128   67.966026   54.107258
H   81.108704   98.599953   23.135002
H    3.670490   99.507195   34.227894
H   70.685402   67.352760   13.228905
H   96.487389   24.427135   64.042900
H   15.034401   35.344376    1.260391
H   31.934893   38.926231   69.171288
H   54.217453   29.414661   88.519073
H   95.916321    2.386827   81.174965
H   43.394379   66.720177   69.082970
H   77.344536    0.236728   76.718224
H   99.596321   29.788139   75.304916
H   38.398529   74.413139    2.717515
H   97.841827   85.823593   16.300154
H   34.694580   18.351776   45.117477
H   69.714500   44.217728   46.075321
H   50.218369   72.472031   23.225504
H   71.110611   99.918152   14.632172
H   12.889773   46.172157   85.572426
H   64.782265   81.853508   87.430008
H   73.171501   55.511417   90.472137
H   73.431877   61.658195   48.145966
H   39.460117   80.827164   42.016304
H   26.695572   77.215164   31.121191
H    0.070505   29.721996   18.667822
H   45.309128   91.534912   82.957970
H   61.193981   51.982529    8.199378
H   77.861092   62.834625   85.176208
H   64.887939    9.136558   53.921303
H   80.946732   53.613396   39.234955
H   44.437859   29.841499    5.610120
H   41.747017   40.240273   20.330933
H    9.059918    7.815101   15.242379
H   30.382771   47.039894   32.175053
H   99.101524   30.218670   33.231884
H   80.139694   46.993126   91.649597
H   15.317331   65.206032   61.559589
H   27.949142   10.053794   79.333054
H   90.518524   82.320564   76.561386
H   24.764166   72.914764   14.876407
H   79.104408   39.083534   34.240528
H   20.470020   69.944778   90.458939
H   57.832348   92.862129   89.546181
H   52.657825   10.432534   41.038765
H   56.323261   11.548014   65.720634
H   10.924481    2.422781   81.846786
H   58.817715   54.645802   73.856163
H   43.424839   18.070211   69.970688
H   81.432304   18.054441   70.995285
H   41.447403   31.112122   11.686028
H   40.334393   81.590584    1.097159
H   15.771734   96.139236   13.728689
H   95.530655   10.881952   39.180298
H   95.783630   44.245430    5.307470
H    9.151724   28.620712   73.115799
H   14.099960    5.104367   90.953583
H   55.413807   48.464001   18.955040
H   58.737621    5.560660   91.986565
H   43.188782   13.331469   24.316673
H   80.725357    0.090586   25.850197
H   50.849060   50.334900   84.515175
H   94.637596   35.450634   41.772320
H    4.897766   64.223701   39.016003
H   61.604599    2.642906   42.862499
H   71.915092    7.326676   41.257679
H   35.151031   36.976135   61.766273
H   62.188972   27.109106   98.427155
H   72.177589   88.577644   43.317753
H   44.513172   99.419647   71.570641
H    4.624317   40.647106   21.491184
H   95.636833   50.027580    9.898827
H   37.867805   30.877623   20.414680
H   62.777920    8.194471   90.288658
H    9.500425   90.469955   18.813871
H    5.741786   48.062813    1.144030
H   36.807327   48.903172   35.195610
H   22.529892   23.448019   85.664345
H   41.605694   45.524029   73.823967
H   59.122753   54.480850   55.495193
H   17.136517   33.460876   79.434662
H   58.173069   46.508526   20.027809
H   75.883301   50.680656   95.558655
H   15.156002   66.725655   50.808876
H   72.011467   89.201126   98.406647
H   81.229065   79.596680   79.423561
H   88.263863    6.757478   15.354689
H   27.529057   44.682190   80.340675
H   88.273384   58.205761   66.617264
H   94.451057   13.585035   63.434639
H   86.018578   74.672836   40.374832
H   98.973579    8.464307   32.676041
H   29.448597    9.097923   52.163139
H   23.597183   33.732780   86.356262
H   37.982803   57.779522   46.897125
H   12.629649   29.605286   30.916626
H   33.920708   43.617947   13.540005
H   36.743698   38.376263   46.472603
