100
TIME:    3.944, STEP:  3944
H   50.605377   60.336426   95.535172
H   91.559990   18.581415   26.785994
H   47.548500   57.651024   77.046638
H   82.138596   70.157280   23.978567
H   59.845001   88.886497   58.766373
H   66.865486   96.935265   69.334312
H   46.264721   27.655239   98.878868
H    9.895676   29.808102   46.069424
H   56.676888    7.093863   51.826992
H   67.061516   73.013359   62.134949
H   33.393753   24.937702   59.842625
H    5.307449   21.382746   12.190996
H   92.384781   23.090088   33.127701
H   59.797081   92.919350   57.381252
H   28.475586   17.733444   61.189594
H   42.945282   66.772392    5.654433
H    6.954091   42.835133   32.426231
H   85.419151    2.903799   62.811932
H    6.697552   43.809898   71.146301
H   86.260368   22.060999   84.858513
H   30.234161   63.580654   50.194984
H   40.495468   49.319702   83.410263
H   33.085945   62.545921   19.507656
H   52.601173   83.983765   14.156828
H   88.524567   73.381149   65.667152
H   28.571844   10.092357   19.499704
H   21.982946   78.530594   78.225502
H   99.759186   40.532288   97.137871
H   96.928848    6.922763   70.737343
H   52.223373   93.225395   96.925720
H   71.278053   75.721138   97.342216
H   14.783620   43.542053   34.148201
H   48.167942   79.920708   53.103622
H   44.745300   12.278620    5.597323
H   82.733597   60.783958   64.888901
H   15.478273   94.307159    7.072947
H   58.079193   60.098129   19.236929
H    0.980666   86.773445    0.759585
H   78.595825   95.485710   62.109306
H   91.712791   42.959358   48.340458
H   65.707291   91.512833   35.264629
H   77.156876   88.866791   88.094131
H   45.212818   87.150940   86.352898
H   27.507502   78.869232   66.357300
H   14.543234   76.280212   93.609070
H   27.204647   38.142567   99.181862
H   72.547165   39.326500   63.325966
H   56.450047   35.991882   12.610252
H   80.316513    5.808309   87.146393
H    8.594996   90.766182    7.816705
H   43.243717   88.875465   95.001724
H   96.804398   97.765198   15.145039
H   90.684608   44.877380   73.808968
H   85.359093   42.856850    5.854884
H   26.766678    4.230546   33.892033
H   98.501053    8.385366   58.363739
H   46.283550   75.744164   31.094763
H   32.377434    4.425232   11.966402
H    1.332592    5.411931    8.699696
H   98.756409   30.937086   51.433846
H    8.490871   95.158592    6.891306
H   58.934349   91.231888   16.899895
H   41.818653   38.152031   63.018547
H   13.866449   63.248886   20.059681
H   88.866539   45.843548   62.856678
H   59.058968   46.204842   79.383865
H   71.133926   84.716431   57.478802
H    7.926725   43.099258   54.748608
H   53.471916   66.395645   12.870956
H   10.292223   46.514923   93.428192
H   96.791801   27.050358   14.836723
H   48.765862   20.631653   45.383305
H   49.835587   23.220272   60.626915
H   43.389065   99.794762   68.815025
H   52.326443   34.261593    0.379448
H   18.894907   60.347427   30.548725
H   25.044245   84.707077   60.800755
H   17.276623   92.831886   32.252274
H   50.640717   41.933956   61.689789
H    6.103969   94.154839   81.142143
H   88.054062   70.084152   15.712712
H   37.247955   69.984879   56.982788
H   67.335640   73.090332    5.546484
H   21.491468   49.655830    3.194129
H   60.289352    2.184119   65.425858
H   60.523808   53.925621   15.666724
H   30.565573   16.592003   11.608648
H   19.441164   89.528206   54.726784
H   37.533798   74.576714   95.933968
H   17.635717   47.009865   65.203430
H   85.427307   86.396080   16.751871
H   70.112488   92.111870    8.677456
H   38.271461   45.857346   24.000101
H   28.430279   52.466339   92.742424
H   88.400307   96.449455    6.716472
H   19.679855   39.986458   63.736198
H   49.545990   94.018852   10.365808
H   21.343359   49.818481   92.926521
H   20.830162   53.851330   14.685074
H   84.187904   77.422737   17.801725
