100
TIME:    4.557, STEP:  4557
H    9.151344    4.121271   94.973953
H   74.622292   51.802010   65.440613
H   58.085373    1.753341   69.853691
H   82.241486   44.902458   90.378181
H   54.354416   38.021149   42.144958
H   57.358921   96.271156   30.040880
H   14.138420   69.049194   46.816341
H   61.715080   82.840210   89.785088
H   41.608177   48.156464   13.239614
H   50.309151   81.815132   86.136749
H   76.373993   49.603245    0.796564
H   81.912971   52.109444   68.556847
H   53.275497   86.019005   72.215576
H   29.444725   91.029915    4.028880
H   35.931541   62.977753   31.720982
H   18.297146   13.157278   54.770447
H   57.660316   83.380707   88.230034
H   98.516960   73.088509   41.557079
H   16.245197   69.526718    3.443948
H   69.741844    9.043074   26.594339
H   93.857887    2.552890   33.559540
H   99.264374   50.133469   31.207611
H   24.901512   57.560432    1.968183
H   95.646790   91.335724   68.631500
H   66.599640   24.766518   70.194313
H   25.772943   91.938766   61.897778
H   69.124550   53.049274   90.385231
H   48.035015   69.145065   17.400942
H   10.258597   62.538631   41.759773
H   75.729065   78.053795   45.656715
H   95.401085   30.690826   48.843605
H   53.488934   26.607292   77.399742
H   91.346046   35.070015    8.327504
H   70.645523   56.100861   79.772346
H   67.496521   14.445997    2.219001
H   68.769897   42.352726    5.100998
H   16.874941   37.649399   67.539108
H   75.641808   75.558434   44.015797
H   52.721622   82.128716    2.705461
H   33.975220   85.572273   96.569336
H   23.812805   12.546559   49.706646
H   22.063938   16.378130   16.893137
H   50.492947   90.826920   30.631086
H   88.364075   89.139526   26.294390
H   61.368679   52.094009   46.065693
H   19.296146   49.834614    1.672546
H   77.336227   72.662865   69.209938
H   56.482784   42.305588   50.539253
H   98.238083   55.038090   62.695732
H   21.451572    0.091804   64.940407
H   43.196949   29.694908    1.464827
H   26.593649   40.883823   74.904022
H    3.397213   48.431763   38.205631
H   71.160271   32.853134   32.903343
H   77.959686   57.953167   39.106686
H   99.268051    7.740201   37.495773
H   85.145782   58.056435   89.395988
H   86.732071   46.535439   96.176498
H   49.676872   31.314072   61.640869
H   58.302586   78.054642   33.998665
H   47.160004   66.648705   59.095215
H   37.177788   85.526169   89.164047
H   83.435478   96.321213   20.983299
H   55.961487   66.587082    3.414883
H   13.196797   96.883667   19.942747
H   21.401249   15.730690   15.628720
H   21.952021    5.910953   87.073715
H   65.582588   78.156693   84.053551
H   84.022507   22.349365   74.426300
H   22.711515   77.347168   92.137390
H   77.326881   85.341415    7.482467
H   98.222137    0.286800   90.264000
H    9.866198   92.899361   44.908127
H   29.891766   61.004864   32.391960
H   81.882088   35.136158   46.849819
H   33.388367   99.633141   89.301285
H   80.701370   31.575577   71.641624
H   46.076473   52.750233   66.107475
H   80.037071   40.133381   68.528877
H   76.041260   60.771252   28.331505
H    0.045438   76.425919   52.349880
H   83.242516   73.988235    5.723654
H    6.113967   83.328430   63.930584
H   63.662926    2.111081   47.204880
H   30.441771   63.843323    6.002395
H   46.413845   76.441917   58.235138
H   71.506447   72.021896   40.838943
H   29.306913   40.449669   48.352280
H   50.254745   40.445290   90.920418
H   63.439602   21.787781   87.119003
H   10.513938   19.497120   29.697306
H   15.469556   38.210091   20.358274
H   77.566093   64.251335   71.404343
H   87.679031   89.648499   34.073994
H   77.802635   41.541687   20.801483
H   70.311096   15.780800   32.074135
H    0.889499   29.197353   75.111603
H   23.592909   55.037811   83.114555
H   91.628265   56.493732   63.341560
H   22.264200   61.690609   58.750774
