200
TIME:    0.846, STEP:   846
H   28.092154   60.463810   25.701801
H   33.365295   41.725067   14.498788
H    5.436443   95.662674   75.196953
H   38.269547   84.056831   28.652946
H    8.776086   99.088226   44.945679
H   69.904358   36.367203   47.612701
H   12.139083   54.874153   61.380962
H   16.468748   15.053596    3.562179
H   12.038244   78.421219   32.936054
H   89.528854   66.409584   72.169411
H   33.315845    7.539370   12.111839
H   33.283691   58.197853   41.617096
H   26.047695    7.120444   36.454704
H   75.761284   55.763683   71.467278
H   90.364395   76.609612   41.487541
H   11.636782    0.997638   41.250305
H   12.714476   36.100353   86.009293
H   22.172596   12.299891   32.731632
H   85.188126    7.762879   51.404709
H   91.984215   71.382530   13.979110
H   65.357704    7.009043   98.077194
H   76.537910   71.977669   47.221832
H   76.858315   58.135345   34.595573
H   21.443981   93.584160   89.685860
H   29.586273   37.076370   23.786648
H   18.159452   89.230530   86.941795
H   10.631391   70.956337   73.447250
H    8.418241   95.128227    2.325823
H   36.592144   38.110054   34.789894
H   65.664948   36.998661   77.663345
H   12.570311   76.767067   16.935715
H   20.906147   77.709457    8.523327
H   12.480949   22.025030   80.581238
H   76.370186   64.239067   48.882538
H   18.906649   64.760605   29.608946
H   13.265926   36.104855   86.425423
H    3.657601   61.349365   90.504372
H    2.939925   60.430996   87.921005
H   30.642075   24.701015   57.901947
H   84.271118   37.196468   40.024506
H   80.684624   76.914825   21.638763
H   43.502457   30.399290   21.861591
H   65.790604   73.860832   72.830437
H   35.931229   92.666542   40.421291
H   49.482780   94.784180   66.232658
H   32.531906   98.067497   49.278553
H   91.393982   96.522430    9.465217
H   75.362511   65.541359   25.862137
H   10.516547    5.755564   61.603245
H   40.431278   20.536253   80.075272
H   63.792435   62.825874    3.852656
H   97.973106   46.128399   76.570503
H   68.522179   77.092339   15.846736
H   13.387302   94.972061   90.677208
H   51.548203   62.907684   71.174706
H   97.537529   57.420036   98.491913
H    3.701063   19.038673   43.154072
H   74.029404   72.666931   94.365135
H   15.393957   86.183945   21.783054
H   29.087414   92.586342   55.791702
H   48.456879    3.553188   24.530655
H    0.828139   17.860453   53.712059
H   88.142456   37.759659   64.440186
H   38.809380   66.016914   17.197830
H   81.089905   85.113220   42.710438
H   14.967618   40.104301   43.756058
H   63.538918   10.379151   98.355324
H   93.947838   92.827705   99.269310
H   38.077667   14.042468   54.309563
H   41.748600   52.192173   50.950230
H   58.199318   87.073410   89.491028
H   15.109001    7.893311   40.522846
H   96.727188   36.139751   79.203598
H   27.608255   95.644478   78.215126
H   86.524002   10.681308   39.118622
H   68.631126   97.682335   58.917519
H   92.866211   52.510139   63.573650
H    4.109982   17.004869   27.245399
H   16.140562   56.688560   21.507326
H   59.143620   87.287231   65.522491
H   69.088142   19.860033   92.136719
H   53.283268   57.691525   69.123161
H    8.635415   20.313612   72.548927
H    4.912488   81.675545   13.602260
H   17.328438    5.732077   40.608528
H   41.739662   64.571350   15.167877
H   63.015457    4.046879    3.160647
H   70.291969   95.989990   34.299072
H   84.234512   73.532166   79.353149
H   20.408859   13.210548   48.198544
H   15.840210   40.124187   78.059036
H   79.834251   93.852386   11.590641
H   76.048340   10.027538   78.470627
H   32.853756   72.661995   85.744331
H   40.479774   48.728889   93.178993
H   44.176186   41.258209    0.568958
H   87.526024   93.318108   24.428108
H   94.327858   38.557484   55.175346
H   23.286369   63.707489   55.028824
H   77.741188    7.774103   27.398355
H   36.903835   97.181641   97.475502
H   13.105819   85.824799   62.521873
H   35.741211   15.022943   38.970829
H   50.994560   69.058350   14.227935
H   24.535421   19.508904   44.734730
H   11.414633   97.103394   15.518533
H   90.273186   36.918659   52.594822
H   61.180096   57.541702   95.308907
H   88.197151   32.440216   28.435780
H   23.833612   19.611101    8.503183
H   55.167618   90.800713    1.222216
H   10.326269   78.584167   97.413918
H   46.568840   87.306870   80.754021
H   61.171379    6.332774   59.327538
H   43.627449    7.202970    5.524323
H   89.307549   88.070412    6.272810
H    7.659173   16.975863   91.244675
H   37.696545   56.824429   21.865166
H   41.876038   80.465424   53.589993
H   86.775017   58.769711   71.949753
H   46.879402   25.786427   67.662270
H   92.142166   13.124332   66.013474
H   46.846382   96.263992   42.006779
H   95.149185   45.512146   91.327324
H   58.783348   93.948311   72.770638
H   69.923660   78.932632   13.830769
H   80.323555   52.019455   47.651047
H   62.173347   92.322838   40.120693
H   99.925285   30.547886   71.080132
H   97.117737   21.277050   76.825691
H   73.071434   63.548126   26.570019
H   58.439613   92.061813   23.617954
H   90.458931   12.077765    1.883606
H   71.205887   28.540119   57.165249
H   34.362873   90.412659   28.570068
H   46.217743    0.849106   74.753792
H   69.895996   88.108742   85.506432
H   96.387321   45.299633   73.623283
H   62.153046   52.808350   71.406761
H   43.776207   80.026604   78.619019
H   80.618988   45.247719   34.485443
H   29.340733   59.423569   60.373730
H   35.524750   67.914162   78.944138
H   29.944862    4.591463   88.166481
H   68.786789   49.669098   68.884491
H   68.144508   72.415848    0.822621
H   59.063835   94.123955   42.942822
H   26.105247   50.861061   65.348167
H   81.385712   39.490723   91.920151
H   28.779560   95.290901   67.319092
H   54.861046   71.601669   46.769329
H   59.297050   90.341164   29.161659
H    4.327777    9.179241   82.191925
H   25.929081   15.052719   60.976818
H   37.642727   69.883835   71.716011
H   81.491798   45.031513   72.705948
H   65.654587   79.057831   87.931320
H   54.661797   26.936859   23.921478
H   84.646126   99.450821   80.130699
H   56.885571   32.217804    1.496725
H   59.908592   59.789711   67.303291
H   15.150938   19.915848   30.294090
H   91.304649    8.148407   36.980076
H   33.518875   37.982113   45.272362
H   53.151802   42.650993   15.778923
H   22.354519   45.157352   58.989147
H   64.464790   87.765327   58.645931
H   24.161594   58.504288   73.071609
H    2.307738   26.199480   35.425987
H   54.127899    5.886580   83.579193
H   67.787964   12.840564   35.925217
H   25.227751   42.938171   59.319038
H   49.381737   51.414059   73.372879
H   63.763672   60.043884   88.299072
H   43.272034   90.477859   70.737328
H   19.614433   50.937759   23.877495
H   29.192318   71.852676   12.257042
H    7.100902    9.778786   72.629044
H   60.103306    7.291667   62.047787
H   57.474075   60.955620   94.933693
H   70.353989    6.906019   27.629807
H   31.450815   30.845791   91.739197
H   37.731998   89.527298   18.073120
H   64.678047   26.341663   99.484383
H   93.359650   62.050278   75.900192
H   11.946711   41.337265   86.987160
H   52.453247   94.144676   12.692675
H   61.307419   92.893745   46.731476
H   89.068336   63.875790   73.469284
H   60.633476   54.976818   73.359390
H   76.768753   10.974915   74.973946
H   42.685059    1.397856   16.905600
H   17.561111   31.940983   71.689293
H   24.516768   87.716202   45.526028
H   64.098495   27.187771   19.833996
H   76.807632   11.870451   21.263878
H   13.489429    2.083690   23.920759
H   11.297600   85.362190   29.876266
H    3.832165   13.307531   50.914619
H    1.687189   14.461531   89.329559
