100
TIME:    7.772, STEP:  7772
H   91.733879    9.291677   92.030533
H   85.833328   26.016979   68.155960
H   13.364504   33.052200   32.108128
H   82.781113   12.443775   14.152443
H   25.555208   95.717415   54.974091
H    7.493520   92.788109   48.433624
H   45.639103   86.140228   98.233673
H    9.022423   60.977642   94.594109
H   62.577278   39.047348   10.866795
H   62.478859   27.979403   12.024002
H   77.322525   78.965958   91.111176
H   59.207672   13.260614   39.709175
H   48.155128   91.557297   52.746342
H   70.258293   81.120399   48.693432
H   75.004707   75.799484   77.145538
H   89.027435   31.961548   87.896759
H   99.128914   96.028961   80.904175
H   67.267502   16.653259   30.110317
H   66.312866    4.396594   72.819946
H   83.125290   40.765713   45.486488
H    3.075218   82.490234   46.297054
H    7.489548   54.401428   57.420685
H   81.974800   31.413324    9.983626
H   96.926788   29.803926   29.857151
H   51.612617   69.802536   93.937904
H   10.961727   96.984909   59.503517
H   91.890610   19.403570   54.179012
H   76.762444   19.210379   23.672827
H   80.165337   54.228504   89.786034
H   99.006882   98.482101    1.240759
H   21.932009   18.986225   94.483177
H   56.486080   37.778820   79.771111
H   17.805841   99.846382   97.960091
H    6.486850   61.465279   44.328705
H   87.531960   71.220573   97.905716
H   48.244160   94.164856   94.992073
H   25.235260   19.908041   20.868376
H   42.760887   16.719372   70.888893
H   17.012501   12.078798   91.148094
H   31.158245   84.594818   49.519836
H    4.090874   22.859426   25.449430
H   45.232170   72.081055   76.733727
H   78.173065   10.109779   62.851902
H   83.075027   43.095116   40.640278
H   82.492043   25.249424   21.181187
H   77.802025   11.153960   14.735876
H    2.454908   47.506294    0.066832
H   56.661983   75.419067   49.464855
H   92.214851   88.773323   34.445412
H   88.914795   49.028248   40.114159
H   42.967930   19.307161   35.354797
H   82.847519   42.554981   63.853424
H   70.087013   67.073425   51.485390
H   96.712830   80.397690   74.773453
H   21.976860   39.705864   66.453766
H    3.275776    4.358334   28.049576
H   88.963196   65.288643   95.169228
H   47.336349   42.918129   13.365706
H    3.235039   67.163994   14.829475
H   46.146317   25.169743   42.556419
H   49.964581   17.137955    8.430440
H   23.074471   55.601395   43.696342
H    1.701109   76.935577    0.521088
H   76.729790   84.100433   16.128056
H   40.806992   40.107639   19.341570
H   23.901505   55.904167    5.725320
H   64.006409   17.061138   42.294903
H   43.500633   62.026421   37.749146
H   44.258270   91.339989   72.787354
H   87.870033   39.011379   85.359314
H   75.236168   66.595337   68.921761
H   33.262363   93.538475   25.731001
H    0.241658   33.877705   62.478481
H   59.113262   57.528614   41.367249
H   36.855591   39.759052   90.580048
H    9.390069    5.684647   72.971504
H   72.646202   53.114952   28.578478
H   97.123016   42.530087   43.658756
H   34.208664   30.689907    4.391840
H   18.379097   85.641472   51.356422
H   62.964790    9.687264   44.504730
H   24.501480   94.873184   36.798817
H    9.470666   37.093418   70.109818
H   84.850288   77.225952   53.564373
H   73.898270   62.734127   94.344872
H   72.420822   94.532104   81.494400
H   86.229088   38.264763   94.142220
H   81.024162   83.151184   14.994400
H   16.975025   61.439629   64.625862
H   79.189941   89.514175    2.048393
H   42.084980   93.097572   97.592209
H   53.348194   80.008224   81.613609
H   83.653748   60.719372   20.025270
H   98.400154   84.691124   50.852779
H   22.218887   53.561958   94.679474
H   35.856949   88.824646   66.014992
H   45.697289   13.698703   90.213615
H   23.275560   71.016747   22.858652
H   38.472771   70.363579   94.050270
H   21.960527   79.190598   49.039371
