100
TIME:    1.841, STEP:  1841
H   92.823395   53.192215   97.460526
H   50.059502    4.560435   94.130028
H   11.399977    6.353316    1.724071
H   81.785614   56.801170   39.251797
H   78.681381   20.321781   15.787827
H   99.468147   99.213600   61.066967
H   56.482319   85.650719   34.421455
H   75.187325   47.871265   39.159744
H    8.372704    9.288776   84.202858
H   24.529905   42.817390   79.782036
H   29.009689   40.319004   62.414112
H   85.574356   15.970219   61.884575
H   26.156731   50.324379   42.148399
H   63.926033   99.401375   97.340126
H    2.892801    5.581914   62.278976
H   27.502457   50.709404   80.222427
H   76.053818    3.745276   40.973076
H   40.485832    5.172741   35.722458
H   73.936470   55.587273   60.351864
H   42.917793   66.715927   41.676460
H   55.029083   72.940552    7.276806
H   38.875004   46.529846   62.498253
H   61.164024   79.649483   79.676636
H   47.992683   58.761631   70.346451
H   63.739128   40.165848   50.145302
H   38.217510   72.751251   16.615629
H    3.326904   65.951065   36.498928
H   77.203232   42.371365   27.625551
H   51.201691   16.122046   70.147331
H   71.585564   45.275345   29.742382
H   88.521461   87.136795   63.731441
H   81.999115    1.649604   28.833458
H    0.034500   33.785439   63.648773
H   55.888039    5.006126   94.193359
H   35.010887   19.754829   36.832176
H   32.622906   29.103796   14.310941
H   56.374207   37.115578   53.528873
H   87.899452   25.258579   52.354801
H   67.957596   41.208076   65.676834
H   89.791801   39.835026   82.880569
H    9.429955   19.352671   85.717697
H   66.162598   94.481987   89.293457
H   27.098448   74.539871   34.450928
H   61.798882   43.625977   60.736385
H   96.962715   59.252247   13.649370
H   54.336094   98.031044   90.646126
H   55.519337   25.052095   43.354439
H   56.337734   14.338194   82.488594
H   18.845327   79.977501   71.037552
H   64.501274   58.770596   54.901714
H   43.404163   91.906532   72.828064
H   94.602699   92.907883   53.204693
H   47.069115   32.683472   95.946922
H   34.059330   77.170128   13.054953
H   94.197586   19.896513   16.028334
H   95.869736   10.597145   29.954819
H   12.963930   36.425896   31.081961
H   88.972504    3.027559   66.135696
H   35.472389   16.555090   70.149734
H   37.531429   69.294205   11.247474
H   75.832260   92.957466   70.856041
H   33.570465   10.808521   12.054107
H   99.106018   81.610680    7.258401
H   69.458618   51.809074   77.158775
H    5.393671   13.806104   67.010849
H   88.249825   50.751442   55.039639
H   39.862076   12.011712   55.946056
H   53.195351   22.826172   54.213047
H   48.658440   17.503799   44.768814
H   67.679749   40.740196   97.856506
H   63.572380   70.139091   40.067539
H   22.168531   90.425735   91.411003
H   86.954666   27.243076   14.542095
H   89.673973   32.877121   93.792458
H   50.932755   31.263224   40.958599
H   69.183632   25.563059   72.052727
H   34.105583   66.982407   23.607523
H   18.473858   30.341803   16.110722
H   49.797844   48.109226   38.218391
H    9.239315    8.688700   62.317390
H   46.909000   48.327648   90.021278
H   79.455688   56.250687   32.834671
H   34.282841   37.984711    5.246068
H   76.814888   69.698341   95.274902
H   62.688095   33.728683   69.288162
H    8.918156   76.678917   69.627861
H   90.110939   69.497223   11.329264
H   85.591629   57.899643   76.604836
H   93.887642   91.668648   13.137741
H    3.568802   33.531807   90.029289
H   99.363808   72.839172   72.340286
H   14.502604   33.966167   68.599190
H    3.406623   82.794235   61.339951
H   25.167233   24.902491   50.947121
H   24.762459   84.824005   58.390648
H   45.980652   23.031927   72.358841
H   16.472595   73.331749   31.311813
H   13.624665   31.912689   26.579906
H   21.011707   44.786121   90.839279
H   53.573685   31.414856   20.371189
