100
TIME:    3.055, STEP:  3055
H   10.725327   41.862206   96.349075
H   16.289940   70.383301   70.708481
H   32.267456   93.693420   87.478172
H   81.989380    6.783575   72.709290
H   67.807693   17.629223   82.871490
H   80.647591   97.898384   81.293053
H   92.858131   67.627052   29.357918
H   79.769318   52.897511   27.693874
H   78.530205   92.567505    7.785059
H   91.356544   60.248634   27.320215
H   16.086365   89.167236   45.476185
H   39.240456   76.822113   75.470955
H   48.933212   76.875565   21.487076
H    3.815572   95.659492   89.726555
H   17.660839   97.142715    3.920409
H   78.689224   44.527679   79.449562
H   78.442177   84.035080   51.497051
H   66.428062   46.136070   93.632019
H   92.849648    6.512793   24.311884
H   10.213371   40.938572   24.331202
H   82.988693   52.083099   74.323349
H   55.266174   48.139542   59.116806
H   44.955376   69.776100   44.943817
H   35.198929   73.321625   80.183067
H   20.319721   43.883011   59.101738
H   32.650997   36.580570    2.826610
H   98.642395   15.483811   60.589611
H   74.769279   99.036797   67.755943
H   77.598633   26.265303   12.761007
H   18.135750   15.229081   26.252014
H   36.288380   96.003677   67.677071
H   58.651741   68.102730   16.447380
H   85.547699   44.963615   73.015480
H    7.181798   93.750313   43.048126
H    4.831581   27.985687   10.757401
H   38.175014   24.470736   10.138371
H   72.812630   92.654282   49.187313
H   37.722328    3.039096   38.024044
H   16.119118   14.854017   48.259827
H   75.446014   26.184130   78.395851
H   26.463839   61.005672   14.320310
H   57.055168   48.969383   46.327301
H   37.555340   81.819870   22.139786
H   84.277023   63.974777   79.435265
H   91.657036   11.357780   17.535543
H   38.673908   21.186237   95.573555
H   65.601852   90.978485   54.786758
H   56.402569   26.837378   57.604012
H   54.328377   79.434135   22.608351
H   89.953484   77.241814   69.992828
H   43.311543   74.702866   85.628265
H   53.599674   80.258377   73.507622
H   72.249687   39.722656   25.439297
H    5.948902   57.364685   66.625214
H   97.549179   26.316452   26.332052
H   97.388718    9.321293   88.627396
H   89.925804    1.395767   46.543419
H   98.574944   88.380325   34.866898
H   31.218071   67.849915   76.949867
H   57.419128   62.606655   76.719124
H   52.412636   36.500309   76.203415
H   90.486687   99.506577   57.127090
H   81.464760   98.814995   23.979965
H   52.821564   58.412941   44.198711
H   53.581806   16.845921   80.067787
H   13.671589   90.399818   26.819580
H   42.460487   53.980206   14.557563
H   69.335991   92.255371   12.249267
H    9.161898   30.273506   68.629494
H   92.279846    1.799560   95.300171
H   25.022743   87.537254   25.502254
H   22.068731   50.135666   80.295044
H    7.799474   67.191917   83.417229
H   62.961758   56.054031   21.640816
H    9.466100   32.993259   32.988194
H   97.877571    3.369013   90.366943
H   44.329350   61.760681   45.078846
H   75.509781   50.962353   83.156311
H    8.012185   44.545231   51.766945
H   49.702431   42.572300   57.730209
H   70.663651   60.887035   62.578892
H   70.545135   64.179031   31.320745
H   11.088655   58.250153   20.873417
H   60.328197   73.581879   84.389740
H    3.575646   57.793690   51.604408
H   80.981079   21.268845   53.931713
H   71.191261   81.229530   69.217484
H    5.133413   60.703690   63.971375
H   19.082939   24.074495    3.205912
H   96.235077   83.584427   33.427010
H   49.045807   38.392941   97.977737
H    4.330470   25.259310   91.735878
H   81.286087   19.181646   55.252281
H   42.505482   98.540535   32.801941
H    3.770177   76.081757   86.288048
H   46.252075   75.092842    9.654291
H   20.110847   43.000652   61.493782
H   18.080961   42.249176    7.153738
H   63.180290   50.019199   89.148201
H   28.968836    0.239105    3.441270
