100
TIME:    1.550, STEP:  1550
H   12.502382   79.878464   97.726944
H   58.154182   88.783623   75.773796
H    6.397882   85.417580    5.140326
H   81.736771   68.790001   55.203602
H   81.287842   96.996864   23.677299
H    3.980634   99.528862   32.247150
H   71.733681   66.002357   11.664879
H   98.059349   22.696941   65.879143
H   15.526039   37.267288    2.519353
H   32.481453   38.639061   68.388206
H   56.077805   28.609913   90.445648
H   96.679565    1.384360   82.598610
H   44.666504   67.930199   71.070885
H   78.334831    0.298389   75.196312
H   99.353096   31.574562   76.266220
H   39.202667   76.162407    4.377652
H   99.449799   84.500961   14.479278
H   34.267181   19.324371   45.810837
H   69.402916   43.378647   45.021702
H   50.757156   72.896835   21.863810
H   72.297440    1.909259   15.175003
H   10.972011   46.145760   87.275307
H   65.049294   82.016167   88.002213
H   75.029716   55.271549   91.957428
H   74.147209   63.244347   47.998413
H   39.551823   81.423172   43.890846
H   28.420197   78.046463   30.724310
H    1.757994   28.788464   18.006735
H   44.874252   89.720337   83.903404
H   60.427074   52.477524    6.609472
H   77.074348   61.041107   86.758850
H   63.625126    9.689116   55.772804
H   79.538040   55.076714   37.433197
H   43.592827   31.674385    6.452653
H   42.244148   41.752113   19.113129
H    7.320951    6.243961   15.311120
H   28.464512   47.772316   30.599127
H   99.928246   30.584728   31.820599
H   81.038742   47.420067   93.566406
H   17.201105   67.078285   59.985950
H   29.315872    9.367530   78.861862
H   92.316010   81.423042   75.621750
H   24.591894   72.794830   13.431819
H   80.381569   38.748299   32.285114
H   22.204868   70.733963   88.747513
H   58.090374   92.480659   89.465004
H   52.446644    9.353623   40.867867
H   56.322193   11.342096   64.483147
H   10.339917    4.079133   82.644516
H   58.398251   54.341389   75.255089
H   43.426365   20.001135   69.759811
H   80.460320   19.910292   72.308151
H   41.032516   30.996155   12.847603
H   40.797497   81.916817    0.214662
H   17.363983   94.386002   13.558973
H   95.505630   10.902971   39.861145
H   94.515625   44.822517    3.405275
H   10.640944   30.509521   73.630936
H   12.522659    4.259297   92.488922
H   56.733540   46.926678   19.523888
H   57.476025    6.490722   93.546013
H   43.898621   13.517664   25.221672
H   79.368851    1.454475   27.222267
H   49.475616   50.226105   85.058083
H   93.843834   37.048077   39.909679
H    6.126384   65.217964   37.833447
H   63.209213    1.951474   41.896923
H   73.296623    6.182820   40.301563
H   34.154175   38.413208   63.020699
H   61.783852   26.103170   98.469269
H   72.812660   89.938423   43.557621
H   46.162189    0.083412   70.106407
H    5.928391   41.636333   22.004032
H   96.076897   51.293297   11.087486
H   36.903603   30.849165   18.898491
H   62.305050    6.912641   91.634483
H    7.684550   92.203354   18.460096
H    4.802149   49.370644    0.039474
H   35.848618   48.961765   34.972527
H   23.510727   24.537268   87.387367
H   41.214306   45.317120   72.628593
H   57.622051   54.350235   57.167557
H   15.871110   33.127014   77.529755
H   56.797184   44.797100   21.854591
H   76.857117   51.931725   97.497437
H   15.616360   65.991096   49.420021
H   70.675713   90.655289   97.452972
H   80.907104   81.197937   79.631386
H   87.848824    7.871026   15.518301
H   29.297321   45.505096   79.625648
H   87.454903   57.125896   66.194901
H   92.971260   12.080900   63.053627
H   84.735313   74.073471   38.827591
H   97.040596    7.251145   31.327583
H   29.794437   10.889458   51.703545
H   21.945267   34.522575   87.389282
H   39.570328   56.631756   48.047333
H   12.556216   29.434998   31.236679
H   34.873466   43.531734   15.215267
H   35.501633   38.890026   48.398872
