100
TIME:    5.789, STEP:  5789
H   25.835714   91.141441   93.846024
H   40.596413   18.560553   43.120739
H   79.269028   90.388229   55.391796
H   82.448273   94.142670   22.847698
H   43.319504   36.771301    8.742203
H   38.249912   94.936440   52.050892
H   49.567951   52.239567   43.160419
H   64.882309   89.424210   76.667549
H   11.323265   29.704742   35.689812
H   16.643309   99.504829   34.380497
H   61.776352   99.175751   82.123421
H   34.891281   13.863077   80.861946
H   74.658829   11.517956   49.797539
H   68.444206   87.232552   97.784645
H   50.914207   52.930527   72.501648
H   68.760635    5.401883   52.503632
H   58.590187   64.866692    0.383851
H   24.861830   13.145542   98.849648
H   35.433262   21.208376   68.347610
H   36.550888   82.876747   10.474604
H   20.749245   79.904297    0.121355
H   17.377411   51.768967   26.291428
H    8.451459   47.540657   66.720245
H   81.176765    6.081515   77.132355
H   22.536198   27.063065   79.292946
H   20.156794   55.523247   46.045845
H   62.888008    1.834104   14.828365
H   44.082561   26.650642   58.128601
H   37.047432   74.315430   83.523438
H   22.968983   47.562096   43.597153
H   43.889404   41.166286   51.371681
H   31.278111   92.569138   63.347328
H   78.127068   44.931206   19.315794
H   22.700813   43.195366   27.869158
H   36.873230   21.315699   77.237381
H   75.865585   38.848381    1.225871
H   35.039635   92.528931   64.615883
H   24.723034   53.014057   30.955196
H    0.715227   55.283989   83.315392
H   17.934690   70.237221   93.500755
H   39.614075   54.815727   78.732033
H   12.348699   64.304703   75.497154
H   61.104885   98.214859   19.619930
H    9.697279    9.811117   46.753380
H   54.502171    3.489040   51.490948
H    3.399276   73.333145    6.679636
H   86.961227   39.664017   81.034401
H   56.548580   54.994797   26.768408
H   34.247948   53.004066   13.547845
H   47.290562   18.843634   78.773483
H   43.104092   10.752729   14.452468
H   86.467491   26.563171   94.024117
H   28.953259   55.575317   66.654350
H   42.630692   12.748168   87.269554
H   79.865959   65.926208   49.587032
H    0.805933    6.444257   95.555573
H   63.247780   22.507851    6.569506
H   94.995026   30.188364   64.444077
H   46.842285   83.368263   67.059547
H   77.003937   72.750610   98.957664
H   24.875381    9.357260   63.038692
H   93.454994   74.058884   33.420364
H   67.076881   12.251854   36.501343
H   40.559944   73.298264   69.970810
H   62.100143   98.485916   34.673801
H   45.718468   54.484703   88.474190
H   23.106388   48.502079   46.555618
H   80.479851   48.616734   42.950275
H   45.425938   33.825706   97.155792
H   47.668709   39.312103   89.543152
H   38.206520    1.517036   92.704689
H   96.638016   59.399338   80.465805
H   29.538170   31.958504   13.316696
H    2.773216   83.032860   59.190666
H   41.281910   36.893848   40.243912
H   62.517151   78.594048    6.403786
H   92.558495   24.793688   93.429466
H    3.958079   72.192879   34.144699
H   39.116085   36.514606   82.270821
H   15.627087   93.664986   22.193523
H   24.153749   89.171524   25.983709
H   75.691833   82.013321    2.690725
H   84.042061    3.931602   81.258881
H   48.423210    7.536108   34.681225
H   70.452827   86.779594   86.573837
H   18.055813   21.692951   43.789017
H   53.788948   82.445320   99.585281
H   49.132042   41.832111   35.554832
H   75.821152   71.850044   80.844246
H   54.513950   71.102097   31.160685
H   60.932396   86.020767   55.714886
H    6.626276   30.867033   43.829224
H   56.539505    1.216703   66.676834
H    6.752574   64.385078   17.142290
H   56.503563   31.186314   49.110661
H   72.069244   67.130341   68.439514
H    3.099094   99.899742    4.258430
H   27.103220   72.897003   62.665024
H   32.938324   61.804401   60.148689
H   98.789108   30.080093   40.068172
