100
TIME:    8.575, STEP:  8575
H   37.429436   35.652580   91.295364
H   63.655746   69.532043   18.785786
H   27.167292   90.824188   22.682621
H   82.915894   79.360039   70.138985
H   18.359747   60.081318   33.200851
H   95.041870   91.918159   27.956638
H    3.555136   40.363426   61.029331
H   45.908203   30.448404   20.865379
H   42.838005   61.841385   60.322765
H   40.546333   39.509296   43.466652
H    2.629417   11.276231   13.762461
H   28.557274   53.510983   82.551445
H   96.950256   42.953064   72.946686
H   30.498049   78.645332    9.800678
H   84.757942    4.071548   38.528732
H   56.741287   61.728111   21.240990
H   34.556618   49.139568   54.004433
H   84.433685   77.579536    2.275623
H   78.822983   38.085606   15.126811
H   61.487545   23.714441    0.158514
H   55.424065    2.548252   24.504381
H   84.473946   55.467422   89.037842
H   71.253593   24.885641   87.008942
H   22.316416   39.410126   70.220886
H   22.893009    6.119125   99.868263
H    7.175173   73.312485   83.936661
H   22.646746   86.024551   70.111435
H    9.008511   56.691715   50.217575
H   97.625587   27.082876   51.826836
H   29.795971   78.608047   65.076477
H   53.537151   90.992699   30.952370
H    7.188079   15.595083    5.433353
H   74.369034   41.094170   70.300674
H   40.416748   87.875183   10.500650
H   67.547630   10.422142   46.763111
H   18.047613   57.062538   92.467995
H    2.253484   90.499275   84.141869
H    9.572384    2.023535   27.555260
H   83.118736   94.583885   13.331249
H   55.523636    9.420182   12.697331
H   49.210724   50.409866   44.367764
H   77.559555   75.230026   17.730175
H   85.083649   14.926664   20.854801
H   31.801357   56.577293   19.152981
H   12.838413   93.570992   89.896782
H   67.436150   26.466908   17.998186
H    8.732505   91.175301    7.778436
H   56.710995   83.689713   99.149986
H   15.687386   22.268929    2.412645
H    5.773079   61.250423   83.968834
H   42.912792   41.782890   43.821487
H   21.873957   68.043411   11.140775
H   86.738579   71.729492    4.849421
H   78.113068   67.299438   10.207702
H   58.040749   10.076503   73.278580
H    4.275911    3.513656    0.713553
H   39.869270   42.118584   71.541283
H   87.543884   67.084282   92.681908
H   66.568459    1.092135   53.183784
H   93.157799   86.890991   19.717186
H    0.617710   79.793457   45.821003
H   94.574394   48.127182    7.362356
H   56.218349   22.140471   45.456970
H   31.869305   88.474686   94.326630
H   72.681000   75.973572   94.120972
H   74.573158   15.984521   53.205280
H   99.579697   44.821522   81.062790
H   88.031738    7.950373   76.137192
H   84.278961   33.641518   22.423256
H    4.178622   79.343826   83.656174
H   49.734646   11.956967   59.291054
H   67.135910   66.876366   84.589828
H   47.885406   94.157005   41.887638
H   41.438587    6.708588   93.656746
H   75.537704   40.941448   51.463871
H   28.375261   57.151031   18.940992
H   45.576004   83.612427   42.821632
H   34.845867   90.026802   88.011108
H   72.714500   28.331242   13.353237
H   78.999504   41.898949   82.177361
H   78.685143   17.994669   92.498978
H   84.757156    0.080708   69.618645
H   60.263321   50.522495   46.583241
H   40.095520   45.940773   80.223289
H   34.799561   12.503635   16.503395
H   53.940250   24.027111   37.257339
H   39.859715   79.879799   32.432365
H   93.938622   18.893784    6.668495
H   33.641605   16.730181   58.058357
H    8.193215   56.479210   30.753073
H   74.947014   36.455647   14.550437
H   12.762064   40.401016   96.917366
H   35.127430   84.809227   82.122498
H   76.005569   33.408192    4.997765
H    8.333393   81.633499   13.131107
H    2.181420   57.114380   24.539238
H   81.959343   59.780373   44.032784
H   21.725580   10.751649    6.737020
H    0.219989   73.831123   26.791218
H   71.836548   58.582989   71.683807
