100
TIME:    7.621, STEP:  7621
H    1.945482   23.138744   92.168777
H   90.003708   17.834049   58.634861
H   10.768961   22.188995   33.881115
H   82.755768   18.665359   22.429329
H   26.908278   83.614098   59.068436
H    9.835326   92.951698   33.479012
H   53.552456   75.944687   86.425278
H   20.890724   47.914677    8.458272
H   66.289146   53.565338   20.371689
H   66.603157   25.811266    6.111210
H   91.368179   72.890106    5.656572
H   64.971130    5.692008   50.457695
H   57.783867    0.697501   67.751930
H   77.735023   81.585823   37.201847
H   73.170662   89.287552   84.407990
H   95.098679   45.168518    0.430952
H   11.271654   86.040787   67.158051
H   64.039490   24.000961   35.344238
H   63.960423   98.061981   64.863968
H   87.194290   43.971836   35.205696
H   12.035767   97.522034   50.394855
H   93.013031   54.200974   70.279739
H   83.990868   32.641121   14.304059
H   10.956781   27.997530   41.072136
H   57.013374   81.776825   92.822731
H   11.673687    1.436189   73.713127
H    4.911184   25.680452   51.182560
H   89.503990   12.162208   18.681620
H   76.882027   40.528461   96.924065
H   93.216736    2.219481   89.236565
H   15.989217    5.445938    6.429760
H   46.951809   41.950352   93.749947
H    7.169407   10.893961   84.356819
H    0.106564   75.303566   50.690262
H   91.289909   82.653404   88.719360
H   35.117832   82.338028   95.466713
H   10.752408   25.438402    8.970292
H   49.001480   19.483112   60.232941
H   23.386730   15.368444    5.781102
H   45.380196   98.730331   37.638863
H   14.410315   17.678709   21.891935
H   57.957588   71.488907   69.024284
H   76.873566    9.203989   51.945553
H   92.717590   40.560631   25.876663
H   95.590721   31.206615    8.259346
H   79.751274    8.274440   14.122416
H    1.274500   39.294563   98.617531
H   56.652767   73.863815   40.121822
H   87.800240    1.279742   40.469421
H   85.744385   46.729931   50.672592
H   42.978298   33.885559   33.762680
H   75.509033   56.567226   73.765564
H   66.955772   66.197876   60.254707
H    0.210342   82.860748   68.110062
H   34.000015   26.472637   65.170395
H    3.087705    4.517171   33.189972
H   79.389755   69.645653   80.807915
H   58.580246   57.178062   17.255369
H   91.325401   60.783421   26.421864
H   56.110298   13.562955   46.851219
H   40.439526   24.160206   20.203308
H   28.433754   57.006882   50.529083
H   91.450157   87.239410   10.875610
H   66.361443   83.277878   20.228161
H   34.812935   52.168331    5.279212
H   33.177216   63.410851   96.796844
H   76.121246   11.840904   35.004803
H   53.931190   53.390739   30.530472
H   36.732002    2.189877   82.257111
H   84.803307   31.427507   85.679581
H   80.030952   76.869217   70.732765
H   45.696316   98.552147   14.662826
H   10.087370   41.346371   66.349915
H   62.436893   67.085144   50.339325
H   29.581812   39.536709   79.131088
H    5.820101   96.007103   83.132484
H   58.932331   66.184639   25.900564
H   90.028763   52.403057   35.319149
H   26.968100   31.133442    2.706696
H   25.783825   93.867027   64.365242
H   60.008659    8.125100   35.479660
H   13.170676   93.893951   49.430920
H   99.919411   34.568150   55.729408
H   74.461205   64.304688   67.355705
H   81.250580   72.180687    8.982495
H   75.895370   88.986191   71.008545
H   76.144142   49.243690   86.941978
H   78.595665   95.233765   16.560020
H   13.840905   69.847206   65.860847
H   92.539764   95.725967   96.650223
H   35.905445   84.943443   94.403366
H   42.175724   68.651428   78.735817
H   73.974319   56.188404    8.348208
H   83.806129   75.530113   40.671062
H   24.829983   67.087784   91.209534
H   23.384979   94.787598   73.814293
H   57.683098    5.033357   98.897682
H   23.567026   63.544697   25.890242
H   45.666100   69.711525    6.697941
H   12.581676   83.066055   63.586163
