100
TIME:    1.651, STEP:  1651
H    5.672286   70.616226   97.634476
H   55.344688   94.259285   82.144859
H    8.134062   92.684044    3.954614
H   81.753723   64.628929   49.667065
H   80.383194    5.092443   20.938942
H    2.414405   99.419441   42.249905
H   66.439873   72.821892   19.563210
H   90.120949   31.434422   56.605499
H   13.043266   27.556580   96.161934
H   29.721594   40.089272   72.342766
H   46.683029   32.673893   80.716446
H   92.825180    6.446807   75.409203
H   38.242271   61.819588   61.032143
H   73.333839   99.987007   82.881966
H    0.581528   22.553127   71.411636
H   35.141769   67.328606   95.993912
H   91.329544   91.180252   23.674829
H   36.425545   14.412703   42.309372
H   70.976418   47.616005   50.342480
H   48.036278   70.751572   28.740366
H   66.303955   91.854736   12.433704
H   20.656620   46.279068   78.675758
H   63.700798   81.194740   85.112579
H   65.645729   56.482883   84.456711
H   70.534782   55.234283   48.743553
H   39.088711   78.413330   34.424408
H   19.710842   73.848404   32.728558
H   93.235641   33.502804   21.345224
H   47.070374   98.883942   79.128960
H   64.299950   49.977798   14.638431
H   81.047401   70.098373   78.766510
H   70.002350    6.898732   46.422722
H   86.651932   47.686958   46.532074
H   47.860237   22.418312    2.197840
H   39.733635   34.117317   25.263039
H   16.102737   14.178144   14.963979
H   38.151474   44.073586   38.557560
H   95.753304   28.736134   38.947590
H   76.498550   45.264015   83.886520
H    7.688047   57.622883   67.932449
H   22.413887   12.833163   81.241379
H   83.238708   85.955528   80.366913
H   25.461866   73.400497   20.727112
H   73.931908   40.441238   42.159954
H   13.443886   66.748581   97.390213
H   56.787342   94.407082   89.874947
H   53.513111   14.802123   41.730904
H   56.327587   12.381979   70.732460
H   13.291966   95.714195   78.615982
H   60.516544   55.878674   68.190514
H   43.418659   10.249971   70.824738
H   85.368843   10.538248   65.678177
H   43.127693   31.581787    6.981647
H   38.458820   80.269341    4.671278
H    9.323257    3.240005   14.416039
H   95.632004   10.796825   36.422867
H    0.918970   41.908226   13.011375
H    3.120384   20.971035   71.029495
H   20.488029    8.526900   84.735458
H   50.068890   54.690159   16.651207
H   63.847088    1.793912   85.670799
H   40.313934   12.577377   20.651428
H   86.219208   94.567070   20.293312
H   56.411507   50.775520   82.316399
H   97.852333   28.981136   49.316013
H   99.921883   60.196938   43.805355
H   55.105911    5.443210   46.773083
H   66.319893   11.959359   45.129948
H   39.188301   31.155991   56.685852
H   63.829712   31.183146   98.256592
H   69.605553   83.066490   42.346287
H   37.834652   96.731430   77.500786
H   99.342819   36.640736   19.414150
H   93.854576   44.901428    5.084755
H   41.772827   30.992876   26.555248
H   64.692818   13.385820   84.838066
H   16.854708   83.449692   20.246660
H    9.547313   42.766098    5.617492
H   40.690102   48.665867   36.099098
H   18.557510   19.036562   78.686104
H   43.190815   46.362011   78.665230
H   65.200470   55.009842   48.722122
H   22.261433   34.813019   87.149536
H   63.745403   53.439800   12.629341
H   71.939346   45.613831   87.706589
H   13.291553   69.700615   56.433739
H   77.421272   83.311768    2.269093
H   82.533005   73.111588   78.581871
H   89.944771    2.247622   14.692059
H   20.367584   41.349419   83.236534
H   91.588234   62.579212   68.327835
H    0.444245   19.676783   64.978127
H   91.215797   77.100266   46.641159
H    6.802610   13.377564   38.137138
H   28.047943    1.842274   54.024498
H   30.287445   30.534254   82.172531
H   31.553352   62.427975   42.238785
H   12.927052   30.294952   29.620411
H   30.062191   43.967106    6.755177
H   41.774063   36.295521   38.671211
