100
TIME:    7.545, STEP:  7545
H    7.084970   30.108059   92.238358
H   92.102707   13.715569   53.842533
H    9.462595   16.721451   34.773479
H   82.743011   21.796753   26.595146
H   27.589293   77.522362   61.129166
H   11.013984   93.034035   25.952419
H   57.535336   70.813156   80.481979
H   26.864174   41.339939   15.436429
H   68.157372   60.872406   25.155609
H   68.678963   24.720018    3.135274
H   98.437515   69.832062   12.977266
H   67.871460    1.882643   55.867546
H   62.630119    5.297464   75.304848
H   81.498146   81.820076   31.418003
H   72.247566   96.076248   88.063263
H   98.154404   51.815735    6.739760
H   17.383217   81.013626   60.239468
H   62.414227   27.699142   37.978424
H   62.776981   94.874054   60.860088
H   89.242264   45.585514   30.031260
H   16.545715    5.088071   52.457325
H   85.726837   54.100082   76.751846
H   85.005577   33.259224   16.478613
H   18.018290   27.088350   46.716820
H   59.731636   87.803619   92.261452
H   12.032024    3.676373   80.864799
H   11.464758   28.839678   49.674412
H   95.916954    8.614783   16.169489
H   75.229500   33.633076    0.516681
H   90.302490    4.100607   83.194695
H   12.997998   98.630875   12.442619
H   42.153103   44.049931    0.785647
H    1.815945   16.454279   77.510139
H   96.895439   82.268532   53.892105
H   93.181328   88.407677   84.095764
H   28.511356   76.385452   95.705605
H    3.463070   28.221895    2.981905
H   52.142441   20.874134   54.870056
H   26.594952   17.024160   13.145885
H   52.538246    5.845254   31.659052
H   19.604177   15.071195   20.101408
H   64.362434   71.190872   65.144035
H   76.219513    8.748095   46.456264
H   97.570801   39.284996   18.445801
H    2.183334   34.204937    1.755638
H   80.732353    6.825086   13.813654
H    0.680388   35.161507   97.888100
H   56.648129   73.081039   35.419369
H   85.578316    7.573897   43.501373
H   84.148682   45.573162   55.986771
H   42.983517   41.222778   32.961349
H   71.815491   63.619747   78.754456
H   65.379784   65.757202   64.668404
H    1.970139   84.100433   64.756302
H   40.051163   19.812374   64.524460
H    2.993047    4.597116   35.777191
H   74.571335   71.838585   73.579704
H   64.239426   64.355247   19.213179
H   85.331108   57.571720   32.256432
H   61.125282    7.721131   49.012840
H   35.645458   27.694584   26.128632
H   31.131142   57.714279   53.968079
H   86.290794   92.425446   16.087158
H   61.142620   82.863876   22.291790
H   31.796078   58.238613   98.201546
H   37.846039   67.189049   92.303131
H   82.218781    9.213531   31.335562
H   59.181007   49.044304   26.897232
H   32.943947    7.650742   87.023346
H   83.259789   27.610460   85.840775
H   82.444221   82.040176   71.644264
H   51.954464    1.075640    9.092216
H   15.042921   45.105434   68.298157
H   64.109749   71.895447   54.855072
H   25.921030   39.424801   73.368698
H    4.023268   91.136497   88.246620
H   52.029987   72.762276   24.552740
H   86.458145   57.372265   31.121729
H   23.323843   31.356678    1.858540
H   29.510708   98.007042   70.912727
H   58.520805    7.338845   30.937241
H    7.467857   93.401093   55.788799
H   95.112587   33.297153   48.491341
H   69.232262   57.801266   74.297478
H   84.951080   76.935326   16.349714
H   77.644150   86.194870   65.730896
H   71.068275   54.769508   83.318016
H   77.373375    1.315126   17.348015
H   12.263467   74.078835   66.482430
H   99.258881   98.852432   93.933121
H   32.795216   80.839378   92.798386
H   36.552494   62.935425   77.287392
H   69.102554   53.907917    2.471011
H   76.460793   70.919273   35.546490
H   26.144176   73.895035   89.463074
H   17.107697   97.788818   77.739769
H   63.715691    0.671991    3.268580
H   23.713724   59.784473   27.416075
H   49.286583   69.383339   13.063938
H    7.861103   85.016617   70.907181
