100
TIME:    2.187, STEP:  2187
H   69.424469   21.462173   97.143753
H   40.434898   23.320024   15.955193
H   17.347380   31.245033   97.663292
H   81.843689   42.546410   20.285862
H   75.582291   48.055210    6.406742
H   94.104134   98.838753   95.331413
H   38.349735    9.013556   61.479103
H   47.992409   77.804840    7.390285
H   99.867302   76.022217   62.424557
H   15.075567   47.785439   93.329338
H   96.825623   54.241154   29.086893
H   72.370224   33.313507   37.255516
H    4.147942   29.390999    7.759334
H   46.793922   98.334908   23.671551
H    7.101629   74.675659   45.645782
H   13.589958   20.446236   51.501724
H   48.235916   26.626808   72.474167
H   47.879829   88.346703   23.726429
H   79.326881   70.102264   78.581589
H   33.596764   59.368473   65.233772
H   34.496948   38.494869   97.885544
H   72.050171   46.987259   33.035004
H   56.544426   76.835487   69.777496
H   15.845558   62.911350   44.648933
H   51.363884   12.725433   52.697960
H   36.631008   62.440708   84.184349
H   73.492058   51.567310   43.364971
H   48.008820   58.521481   39.062321
H   58.725037   47.513527   53.791313
H   84.853050   36.711929   57.248684
H    2.132366   18.165407   36.354382
H    3.845771   92.088753   96.802544
H   24.406612    8.471268   94.819183
H   70.507088   73.297287   79.616547
H   26.409657   93.599579   57.900185
H   62.705730   56.285374   13.121724
H   89.560791   24.443892   80.792419
H   73.597176   18.925770   76.771416
H   52.760384   33.764343   32.375267
H   57.201748    7.443229   10.102377
H   85.783943   31.225039   93.869308
H   35.066101   10.010562    5.548864
H   30.078749   76.614731   59.441635
H   39.704002   49.425552   94.567429
H   66.948524   45.601994   43.258858
H   49.872242    4.630451   92.050484
H   58.815548   43.774628   46.449265
H   56.356213   17.900564    3.897103
H   28.958288   51.321323   57.235535
H   71.755363   64.036919   30.702938
H   43.377766   58.502876   76.476227
H   11.417147   60.802731   30.489468
H   54.246651   34.689697   75.852989
H   26.047626   71.526299   28.322065
H   66.654221   50.229588   18.963758
H   96.302658   10.233517   18.176163
H   34.897877   26.442284   63.989342
H   63.208344   70.352386   57.223831
H   62.759697   31.175459   43.586334
H   14.700016   95.887253    1.407031
H   97.657883   76.865425   43.879559
H   21.291405    7.587341   96.398575
H   22.575272   58.016411   83.521408
H   93.216553   53.691231   67.766472
H   19.127140   86.172089   99.231888
H   66.994392   33.550697   75.497856
H   12.101301   23.973612   72.650528
H   29.294868   42.614502   70.753845
H   65.903770   92.642464   23.067261
H   74.690979   58.144203   97.127930
H   52.585655   46.596428   35.917088
H   93.639282   78.942734   16.743189
H   64.395187   10.129444    5.669827
H   82.060875   10.981341   73.228645
H   67.614037   31.755541   67.187363
H   77.361641   47.739388   48.771679
H   65.521362   36.992233   29.727831
H   34.729565    7.717645   35.220020
H   66.385391   47.094822   42.078499
H   92.270668   89.845383   32.509102
H   53.680012   51.907177   10.700869
H    5.415606   58.510330    3.901503
H   56.174458   43.760529   38.200748
H    0.615112   99.306007   63.671570
H   45.841080   12.085325   35.747238
H    0.954260   89.386772   93.655052
H   13.219519   44.340210   27.828016
H   91.161545   30.197891   73.004189
H    1.067968   72.403603   10.307247
H   72.978928   19.295525    2.398906
H   13.523712   91.523468   79.647171
H   40.104473   59.987194   75.193336
H   25.605778   93.163254   88.107224
H   58.610485   45.890858   74.275932
H   18.779419   53.832230   66.341637
H   74.558807    9.369474   54.487595
H   89.008835   93.188103   11.413071
H   14.895055   34.858673   21.042988
H    4.529840   46.277592   61.854797
H   75.061417   22.528069   87.046173
