100
TIME:    8.291, STEP:  8291
H   56.635490   61.696892   91.555374
H   71.499374   54.142414    0.878612
H   22.285608   70.391754   26.016163
H   82.868225   91.060478   85.704903
H   20.904593   37.317463   40.901474
H   99.444702   92.225838   99.831154
H   18.439240   21.185541   38.820164
H   68.230042    5.879449   46.942192
H   49.819267   89.146744   78.198883
H   48.303291   35.431477   32.346901
H   29.046402   99.849182   41.118378
H   39.397514   39.275448    2.767084
H   15.060297   60.141876    1.170695
H   44.560127   79.520699   88.188576
H   81.308479   29.439835   52.185745
H   68.160049   86.567711   44.815704
H   57.394142   30.356030   28.150793
H   78.362457   91.399055   12.119835
H   74.398483   26.170658    0.165308
H   69.139786   29.745584   80.822456
H   72.277031   30.822102   32.212559
H   57.246586   55.090408   13.223007
H   75.045403   27.194311   95.134247
H   48.704842   36.012665   91.312012
H   33.049751   28.642471   97.770851
H    8.514660   81.684799   10.661921
H   47.137085   97.828995   64.477890
H   32.971458   43.435551   40.829056
H   91.450356    1.316695   65.252007
H   18.906979   85.636978   42.498962
H   42.358898   65.524742   53.421547
H   89.256187   23.440907   31.724648
H   54.364574   61.873283   44.715714
H   28.416973   13.901937   22.464350
H   74.615562   31.924950   29.483297
H   93.360474   34.816536   93.360695
H   75.013237    0.899754   61.763699
H   21.310444    7.221073    7.514999
H   95.105186    0.771989   40.852547
H   82.273621   36.007561   90.353210
H   68.620453   40.666000   37.676846
H    1.493485   74.116318    3.231463
H   82.639557   13.223059    0.341782
H   49.934872   51.808281   91.385406
H   37.473015    4.773939   65.594536
H   71.102287   21.051121   16.844393
H    6.512070   75.730721    5.051244
H   56.693661   80.764603   81.577660
H    7.386554   45.788979   13.742010
H   99.811768   56.927761    3.825175
H   42.932293   69.200920   40.827042
H    8.070999   94.395401   29.784416
H   80.849358   70.082764   21.343790
H   84.691315   71.931946   97.676102
H   80.652931   85.188583   70.864822
H    3.922189    3.812396   10.381592
H   21.865761   50.313225   44.530602
H    8.691117   93.904289   99.996849
H   44.168621   89.092567   74.986679
H   11.899135   65.063171   27.794823
H   82.703018   93.001953   67.963387
H    4.654152   50.770615   20.212620
H   36.936459   41.520416   64.931702
H   12.367489   86.927628    2.036412
H   61.409081   98.655090   67.673645
H   92.019814   30.103050   36.412983
H   22.366209   35.003986   67.351608
H    7.649679   91.708000   62.560349
H   70.125763   54.047951   40.236092
H   98.410637   65.077957   84.258530
H   58.754818   31.281223   62.697182
H   90.523788   76.306053   63.771740
H   66.402435    8.205420   49.170078
H   47.689655   24.682827   10.530828
H   61.856857   40.523266   29.930731
H   21.660509   38.948181   38.050285
H   19.782520    8.192657   37.783943
H   21.504347    8.595837   72.323853
H   59.095100   29.165440   10.183826
H   92.927361   57.369530    6.644182
H   73.125267   15.056558   75.524673
H   63.445076   98.238892   93.379204
H   42.298813   45.772984   19.535725
H   20.557320   21.638063    6.163147
H   48.627747   30.268909   44.033485
H   60.477329   13.595302   17.535599
H   20.892000    0.528917   18.890190
H   89.371117   41.620178    9.613228
H   27.747269   32.542061   60.381111
H   33.302799   68.163712   20.600775
H   63.324574   21.121571    8.552878
H   91.748940   19.041870   91.504829
H   16.922413   76.289574   60.160339
H   48.558426   16.178211   85.848213
H   13.244328    7.071650    6.605404
H   78.724182   68.329468   39.208122
H    4.502075   43.482094   60.365730
H   22.273767   96.699074   12.438818
H   13.748771   72.604744   50.579945
H   54.196087   65.870316   99.041168
