100
TIME:    1.535, STEP:  1535
H   13.516758   81.254044   97.740677
H   58.571434   87.970406   74.827599
H    6.140032   84.338402    5.316422
H   81.734253   69.407982   56.025860
H   81.422195   95.794548   24.084023
H    4.213249   99.545113   30.761641
H   72.519890   64.989555   10.491859
H   99.238319   21.399296   67.256325
H   15.894768   38.709473    3.463576
H   32.891380   38.423683   67.800896
H   57.473068   28.006351   91.890579
H   97.251999    0.632509   83.666344
H   45.620598   68.837715   72.561821
H   79.077553    0.344635   74.054878
H   99.170677   32.914341   76.987198
H   39.805771   77.474358    5.622755
H    0.655783   83.508987   13.113626
H   33.946632   20.053818   46.330856
H   69.169228   42.749336   44.231487
H   51.161247   73.215439   20.842539
H   73.187561    3.402591   15.582127
H    9.533689   46.125961   88.552467
H   65.249565   82.138161   88.431366
H   76.423378   55.091648   93.071396
H   74.683708   64.433998   47.887749
H   39.620602   81.870178   45.296753
H   29.713665   78.669937   30.426649
H    3.023610   28.088314   17.510920
H   44.548096   88.359406   84.612480
H   59.851894   52.848770    5.417041
H   76.484291   59.695969   87.945831
H   62.678013   10.103536   57.161430
H   78.481522   56.174202   36.081879
H   42.959053   33.049049    7.084553
H   42.616997   42.885994   18.199776
H    6.016725    5.065606   15.362676
H   27.025818   48.321632   29.417181
H    0.548207   30.859272   30.762135
H   81.713028   47.740273   95.004013
H   18.613935   68.482475   58.805721
H   30.340919    8.852832   78.508469
H   93.664124   80.749901   74.917023
H   24.462690   72.704880   12.348378
H   81.339439   38.496872   30.818506
H   23.506004   71.325851   87.463943
H   58.283894   92.194557   89.404121
H   52.288258    8.544440   40.739693
H   56.321392   11.187658   63.555035
H    9.901494    5.321403   83.242813
H   58.083652   54.113079   76.304283
H   43.427509   21.449327   69.601654
H   79.731331   21.302179   73.292801
H   40.721352   30.909180   13.718784
H   41.144825   82.161491   99.552750
H   18.558174   93.071075   13.431686
H   95.486862   10.918736   40.371780
H   93.564621   45.255333    1.978633
H   11.757858   31.926128   74.017288
H   11.339684    3.625490   93.640427
H   57.723339   45.773685   19.950523
H   56.529827    7.188268   94.715599
H   44.431000   13.657310   25.900421
H   78.351471    2.477391   28.251320
H   48.445534   50.144508   85.465263
H   93.248512   38.246159   38.512699
H    7.047848   65.963661   36.946529
H   64.412674    1.432903   41.172741
H   74.332771    5.324928   39.584476
H   33.406532   39.491013   63.961517
H   61.480011   25.348719   98.500854
H   73.288963   90.959007   43.737522
H   47.398952    0.581259   69.008232
H    6.906446   42.378254   22.388668
H   96.406944   52.242584   11.978981
H   36.180450   30.827822   17.761349
H   61.950397    5.951265   92.643852
H    6.322631   93.503403   18.194765
H    4.097422   50.351517   99.211151
H   35.129585   49.005711   34.805214
H   24.246353   25.354204   88.679634
H   40.920765   45.161938   71.732063
H   56.496525   54.252274   58.421829
H   14.922080   32.876617   76.101074
H   55.765270   43.513531   23.224678
H   77.587479   52.870026   98.951523
H   15.961628   65.440178   48.378380
H   69.673897   91.745911   96.737717
H   80.665634   82.398880   79.787254
H   87.537544    8.706187   15.641010
H   30.623520   46.122276   79.089378
H   86.841042   56.315998   65.878128
H   91.861412   10.952799   62.767868
H   83.772865   73.623947   37.667160
H   95.590858    6.341269   30.316212
H   30.053818   12.233109   51.358849
H   20.706329   35.114922   88.164047
H   40.760971   55.770931   48.909988
H   12.501142   29.307281   31.476719
H   35.588036   43.467075   16.471714
H   34.570084   39.275349   49.843575
