100
TIME:    0.996, STEP:   996
H   49.966713   30.682961   98.234146
H   73.564674   58.748066   40.827572
H   96.877106   45.559948   11.645195
H   81.643784   91.614098   85.569328
H   86.249969   52.591316   38.698936
H   12.571617    0.129645   77.383232
H    0.770932   28.592199   68.341270
H   41.602661   74.768051   16.744125
H   29.144417   90.531967   37.392349
H   47.621437   30.684792   46.693489
H    7.609528    6.318797   43.809547
H   17.824963   73.615089   22.032480
H   79.906281    1.447846   26.134874
H    5.765795    2.006371   33.036259
H   92.615761   81.057831    2.894664
H   61.477295   24.619251   50.363754
H   43.989616   47.864059   64.038643
H   22.428238   46.265259   65.016891
H   60.773605   20.136110   15.836443
H   65.688576   84.649780   84.137169
H    5.172531   57.063217   30.211433
H   57.850819   45.414543   34.447918
H   72.445992   86.521812    3.852541
H   26.502365   48.627201   33.103043
H   93.961906    7.184208   43.911209
H   42.092060   97.932602   95.818253
H   76.193176    1.073576   19.730703
H   48.500969    2.929176   99.694839
H   32.828201   39.456608   10.091278
H   39.183758   66.188889   62.567684
H   55.281559   11.359777   30.596619
H   28.645086   24.994377    7.059344
H   40.514744   95.610619   87.524498
H   20.185448   82.445320   29.790689
H   56.014687   83.630104   85.378113
H   59.153351   62.725658   17.217237
H   75.327843   68.060402   86.946297
H   22.824936   40.724545   92.726875
H    5.943041   59.246330   46.665474
H   69.380562   18.940805   16.396910
H   67.174637   90.357155   65.809860
H   42.106377   56.560417   49.593830
H   19.819967   69.472656   73.414528
H   15.758097   29.462851   78.117195
H   70.259026   92.594376   41.338997
H   65.230919   81.927788   87.224113
H   46.596912   79.469833   36.133980
H   56.292606    5.638185   30.204741
H   94.145744   49.959839    4.742257
H   46.779095   45.909153   14.003883
H   43.468632   73.486076   63.918537
H   53.536339   71.318359    8.675468
H   29.540163   27.783875   45.024094
H   53.625484   90.953468   75.767532
H   61.469437   45.819813    8.857843
H   94.812454   11.485197   58.720612
H   59.392433   60.807838   50.715370
H   51.894226   82.827599   87.900223
H   68.828377   80.851685   35.019718
H   93.293518    4.342833   35.280968
H   22.529222   32.252754   36.739517
H   63.561157   18.674728   50.290138
H   41.791130   39.234200   65.228615
H   11.432371   47.212479    0.096658
H   71.856621   81.295586   88.316811
H   40.159370   92.759041    5.076995
H    7.657373   82.796417   15.149132
H   11.565345   74.499252   13.817161
H    6.541579   78.220123   97.764168
H   50.562004   98.238426   99.635834
H   90.404121   27.633551   50.201969
H   91.842545   18.470406   29.543676
H   42.051132   69.038704   36.209919
H    8.268874   86.350952   44.013359
H   10.193688   30.060888   76.901299
H   49.206554   71.407982   28.911839
H   57.386066   40.219841    8.657948
H   78.774216   85.595039   69.446732
H    9.292360   50.584812   28.794212
H   50.679855   54.711044   35.114807
H   30.372860   39.585735   39.516750
H   16.053421   50.732193    3.492256
H   80.816246   23.880884   24.763828
H   18.685171   97.390602   72.456459
H    3.832006   86.583557   51.201393
H   28.368267   45.640026   10.948599
H   33.675316   30.935616   71.036194
H   71.988800   25.551922   85.388130
H   76.352242   38.715996   20.051308
H   78.277420   68.300400   59.819408
H   64.782967   27.213312   54.495434
H   51.980869   70.414848   52.499596
H   49.188896   57.472717   95.967827
H   43.495338   73.648460   93.974022
H   39.372593   60.514961   38.972771
H   76.187088   56.399895   16.004494
H   83.544754   24.838636   79.908081
H   10.522124   24.718018   40.100220
H   61.264885   41.143658   61.620037
H    1.096398   53.121273    1.756585
