100
TIME:    5.633, STEP:  5633
H   36.385170    5.447301   93.988846
H   44.904884   10.106872   33.283855
H   76.586349   79.164780   57.223492
H   82.422089    0.569722   31.398586
H   44.716782   24.267214   12.971825
H   40.669559   95.105446   36.601093
H   57.743336   41.705235   30.961016
H   77.143600   75.927505   90.990242
H   15.158043   44.703461   45.510033
H   20.905245   97.264900   28.271856
H   76.287094   92.898712   97.150703
H   40.845779    6.043855   91.966377
H   84.613541   20.951962   65.298515
H   76.168510   87.713387   85.913734
H   49.017052   66.865219   79.999817
H   75.032913   19.046402   65.452850
H   71.134743   54.548870   86.182556
H   21.525740   20.735950    4.257399
H   33.004093   14.663547   60.128750
H   40.753433   86.190224   99.853493
H   30.006508   95.433838    4.355427
H    2.421539   51.561874   39.576279
H   10.534581   48.809395   71.183441
H   95.670845    4.215304   88.717621
H   28.115192   39.435043   78.140846
H   20.867929   60.135216   60.714882
H   76.339584    8.319010   11.732990
H   57.244823   19.369087   52.971527
H   33.655403   60.161747   90.897827
H   16.987705   51.423058   31.195457
H   37.749237   27.177830   63.713905
H   21.428135   96.879990   77.789040
H   67.139275   56.345085    5.262082
H   16.108971   57.491875   34.440987
H   40.750854   33.108597   67.737320
H   62.304615   26.629673    1.716488
H   20.077339   98.241821   52.323650
H   31.170269   55.869312   19.947170
H    7.300339   58.683159   98.433128
H   32.628101   84.840797   81.227562
H   50.275757   49.463463   75.056740
H   25.495571   63.693542   67.532433
H   59.761166   97.279373    8.352050
H   19.658131    7.192663   31.501131
H   68.033745    9.643781   38.141827
H    5.412349   70.357681    6.045863
H   85.742477   31.180317   79.537148
H   56.540249   53.388046   17.116003
H   29.688347   65.923706   19.770847
H   44.018742   16.469213   89.685104
H   43.114857   25.813932   12.807929
H   78.886009   41.039173    4.264932
H   25.717144   54.670776   75.714043
H   46.242905   15.293677   80.385521
H   92.286736   52.254711   48.259975
H    0.611617    6.608354    0.866188
H   53.358528   27.009132   91.732536
H    6.611060   44.920555   68.462143
H   34.539337   76.777016   79.035194
H   87.299042   60.760357    3.394661
H   15.034361   16.611763   75.202293
H   98.991737   75.510910   40.479355
H   56.485767   22.897364   47.198730
H   29.847202   72.448471   74.205490
H   55.907608   10.945400   20.145910
H   55.301842   62.239952   79.250252
H   35.622803   43.109348   39.024124
H   91.255791   39.695103   35.492573
H   37.650455   45.034874    6.939775
H   44.508766   31.465252   89.871643
H   43.160072   12.131407   94.575661
H    9.500948   64.576645   69.044785
H   39.709641   39.674477   17.316910
H    6.206928   92.906639   68.459831
H   33.761127   36.671284   28.418049
H   58.828766   68.596489   16.900377
H   78.395287   38.315067   90.670616
H   96.628906   82.392769   25.528948
H   31.635769   36.972828   80.530769
H   23.276558    2.162839   35.633179
H   21.100924   87.557632   16.660391
H   63.982788   81.001663   15.740277
H   74.175423    1.322939   66.402985
H   37.691307   94.186813   48.928936
H   78.048592   96.536736    1.696309
H   21.646603   15.962802   32.955948
H   43.370064   93.787788   92.146622
H   46.623131   54.315968   37.172295
H   72.583847   80.536018   82.120125
H   68.306641   77.519577   25.584070
H   54.548241   77.596634   52.420452
H   95.083855   19.134779   40.857330
H   46.539566   96.536598   54.613117
H   91.675636   54.920727    6.623677
H   59.200523   45.160282   45.525822
H   59.184296   73.290741   76.497070
H   15.481487   90.947166   13.230346
H   27.404337   65.177460   65.797081
H   40.369843   61.131947   73.214897
H   89.098618   34.082973   55.096645
