100
TIME:    1.947, STEP:  1947
H   85.654938   43.471451   97.363480
H   47.110924   10.307634    0.816471
H   13.222013   13.979102    0.479684
H   81.803406   52.434105   33.441174
H   77.731949   28.818150   12.913853
H   97.824837   99.098763   71.564323
H   50.927250   92.807854   42.710793
H   66.855934   57.041294   29.426849
H    5.767021   99.097168   77.530952
H   21.633490   44.339394   83.932365
H   19.149826   44.584171   52.204075
H   81.529160   21.283480   54.339256
H   19.414062   43.911263   31.613243
H   58.677467   99.074654    5.406780
H    4.182241   96.113647   57.183258
H   23.240524   41.437477   71.423599
H   67.531570   10.755226   50.623482
H   42.751045    0.017847   32.047653
H   75.587868   60.034401   65.936325
H   40.062218   64.464462   48.893440
H   48.738892   62.388302    4.399799
H   49.038944   46.669754   53.472176
H   59.748772   78.787392   76.643951
H   38.144142   60.032932   62.474251
H   59.947868   31.759247   50.927330
H   37.731472   69.592407    6.680327
H   94.186638   61.544727   38.602398
H   68.258835   47.319088   31.129313
H   53.506531   25.738890   65.136528
H   75.650169   42.651871   38.169094
H   92.691200   96.642441   55.344250
H   88.692047   98.720833   19.020500
H    7.501169   26.030167   73.198090
H   60.366707   95.291916   89.727631
H   32.376091   11.741965   43.286537
H   41.839031   37.431004   13.946614
H   66.540771   33.233742   61.881290
H   83.517830   23.318470   59.834614
H   63.192505   38.945290   55.517067
H   79.807396   29.911360   91.220047
H    2.186287   22.989870   88.215012
H   56.635925   99.238853   94.273529
H   28.011488   75.175522   42.107040
H   55.029930   45.402725   71.100632
H   87.767616   55.070377   22.720331
H   52.968555    0.052833   91.076363
H   56.638599   30.770525   44.260201
H   56.343395   15.429556   89.047279
H   21.943518   71.198082   66.809586
H   66.723625   60.383984   47.488216
H   43.396076   81.673042   73.945709
H   99.754219   83.072281   46.245693
H   49.268013   33.298096   89.790977
H   31.604877   75.441093   17.732161
H   85.759445   29.189062   16.927626
H   96.002365   10.485744   26.346329
H   19.683641   33.367332   41.163414
H   81.079437   93.017181   63.405472
H   43.832085   21.034163   62.012238
H   30.536846   77.441208    8.232783
H   82.518723   88.027534   62.591106
H   29.808556    9.821686    7.257800
H    6.296007   74.382378   99.986252
H   76.737061   52.385689   74.281364
H    9.601077    5.339892   76.882034
H   81.738045   45.481850   61.307186
H   31.357588   15.676206   61.063610
H   45.873238   28.888710   59.280460
H   53.941780    9.887314   38.120361
H   69.827698   46.072060   97.633301
H   60.206505   62.926842   38.796238
H   13.428395   86.907822   99.171440
H   80.043381   22.000172   11.824001
H   87.341637   26.169176   87.492561
H   56.043030   31.414049   48.993999
H   71.689034   32.356697   64.919853
H   43.730110   57.794846   25.482531
H   23.453930   23.410704   21.965015
H   54.879005   47.798679   39.400734
H    4.040765    2.915672   53.185371
H   48.983356   49.424267   96.356758
H   87.408600   56.942947   23.970778
H   40.989521   39.754181   15.341875
H   84.106270   78.768898   85.592957
H   57.526871   27.098022   59.012619
H    6.478323   80.572075   76.988792
H   97.190437   61.790161   16.383924
H   87.298019   49.412979   75.501747
H   96.087349   85.766640   12.270596
H   94.197189   29.170403   93.818932
H    3.701834   78.563263   74.578812
H   22.345572   41.938488   70.619362
H   10.207523   85.970871   69.540329
H   35.412853   31.332186   58.093742
H   22.929504   75.329681   60.826500
H   54.735809   18.846418   66.883835
H    8.058928   79.414909   25.215714
H   14.013860   32.815216   24.883625
H   15.962488   45.243046   81.959579
H   60.156631   28.692314   10.161673
