100
TIME:    1.405, STEP:  1405
H   22.307837   93.175735   97.859695
H   62.187614   80.922523   66.627220
H    3.905515   74.985527    6.842771
H   81.712433   74.763817   63.152096
H   82.586594   85.374474   27.608955
H    6.229249   99.685951   17.887304
H   79.333702   56.211056    0.325603
H    9.456070   10.152905   79.191902
H   19.090416   51.208405   11.646846
H   36.444084   36.557076   62.710617
H   69.565353   22.775486    4.413122
H    2.213512   94.116264   92.920036
H   53.889412   76.702858   85.483269
H   85.514473    0.745427   64.162453
H   97.589714   44.525593   83.235672
H   45.032669   88.844597   16.413559
H   11.107481   74.911880    1.277733
H   31.168541   26.375687   50.837692
H   67.143929   37.295311   37.382961
H   54.663368   75.976669   11.991526
H   80.901947   16.344826   19.110531
H   97.068291   45.954376   99.621193
H   66.985252   83.195442   92.150696
H   88.501778   53.532505    2.726012
H   79.333366   74.744972   46.928658
H   40.216686   85.744232   57.481277
H   40.924118   84.073380   27.846922
H   13.992218   22.020351   13.213855
H   41.721405   76.564667   90.757805
H   54.867001   56.066238   95.082481
H   71.370461   48.038101   98.233002
H   54.469700   13.695168   69.196190
H   69.325027   65.685768   24.370451
H   37.466347   44.962807   12.561121
H   45.848351   52.712959   10.284050
H   94.713684   94.853531   15.809821
H   14.557137   53.082375   19.173651
H    5.921143   33.238651   21.588779
H   87.556839   50.515388    7.463773
H   30.858465   80.652122   48.577068
H   39.224663    4.392216   75.445724
H    5.347801   74.916008   68.809387
H   23.342924   71.925308    2.958491
H   89.640984   36.317841   18.107821
H   34.782394   76.455551   76.339676
H   59.961063   89.715004   88.876472
H   50.915577    1.531406   39.628853
H   56.314449    9.849195   55.511364
H    6.101765   16.087654   88.428055
H   55.357136   52.134396   85.397301
H   43.437428   34.000252   68.230957
H   73.413429   33.365261   81.826431
H   38.024590   30.155396   21.269024
H   44.155003   84.282005   93.816055
H   28.907829   81.675049   12.328533
H   95.324203   11.055359   44.797287
H   85.322586   49.006401   89.614555
H   21.438362   44.203011   77.365677
H    1.087209   98.132584    3.620319
H   66.301865   35.781086   23.648033
H   48.329449   13.233666    4.851648
H   49.044952   14.867580   31.782913
H   69.534180   11.342709   37.169777
H   39.518150   49.437340   88.994164
H   88.089058   48.629536   26.405767
H   15.033760   72.426369   29.259916
H   74.842667   96.938171   34.896496
H   83.312721   97.889938   33.369724
H   26.926964   48.831985   72.114296
H   58.846725   18.810137   98.774597
H   77.416924   99.804070   45.296665
H   58.117565    4.895929   59.490242
H   15.383030   48.808231   25.722179
H   99.267357   60.469742   19.705269
H   29.912968   30.642847    7.906117
H   58.876743   97.619530    1.391611
H   94.519646    4.770679   15.894987
H   97.989777   58.852417   92.032349
H   28.897974   49.386570   33.355171
H   30.621780   32.434349   99.879280
H   38.376743   43.817028   63.962139
H   46.741962   53.403275   69.292191
H    6.696529   30.706808   63.719181
H   46.822018   32.389263   35.098763
H   83.917282   61.001968   11.553394
H   18.953953   60.664860   39.350822
H   60.991493    1.197972   90.538834
H   78.572891   92.807053   81.138115
H   84.839790   15.944251   16.704655
H   42.117676   51.471169   74.441704
H   81.520912   49.296879   63.132763
H   82.242729    1.175917   60.291290
H   75.431648   69.728073   27.609877
H   83.026466   98.455818   21.550991
H   32.301716   23.878082   48.371483
H    9.968872   40.248589   94.878677
H   51.079880   48.310452   56.386337
H   12.023828   28.200409   33.556694
H   41.780968   42.906696   27.360920
H   26.496658   42.614811   62.364326
