100
TIME:    7.602, STEP:  7602
H    3.230348   24.881073   92.186172
H   90.528458   16.804409   57.436779
H   10.442369   20.822109   34.104206
H   82.752579   19.448208   23.470783
H   27.078531   82.091164   59.583618
H   10.129991   92.972282   31.597321
H   54.548176   74.661804   84.939453
H   22.384087   46.270992   10.202811
H   66.756203   55.392105   21.567669
H   67.122108   25.538454    5.367229
H   93.135513   72.125595    7.486746
H   65.696213    4.739667   51.810158
H   58.995430    1.847489   69.640160
H   78.675804   81.644386   35.755886
H   72.939888   90.984726   85.321808
H   95.862610   46.830322    2.008152
H   12.799553   84.783997   65.428406
H   63.633183   24.925507   36.002785
H   63.664562   97.264999   63.862904
H   87.706284   44.375256   33.912086
H   13.163254   99.413452   50.910473
H   91.191483   54.175751   71.897766
H   84.244545   32.795647   14.847690
H   12.722158   27.770235   42.483307
H   57.692940   83.283524   92.682411
H   11.763271    1.996231   75.501045
H    6.549578   26.470259   50.805523
H   91.107231   11.275352   18.053587
H   76.468895   38.804615   97.822227
H   92.488174    2.689762   87.726097
H   15.241412    3.742187    7.932961
H   45.752132   42.475246   95.508873
H    5.831041   12.284040   82.645149
H   99.303780   77.044807   51.490723
H   91.762764   84.091972   87.563461
H   33.466175   80.849884   95.526436
H    8.930062   26.134275    7.473197
H   49.786720   19.830868   58.892220
H   24.188786   15.782373    7.622311
H   47.169708    0.509006   36.143906
H   15.708780   17.026831   21.444304
H   59.558800   71.414398   68.054222
H   76.710052    9.090015   50.573231
H   93.930893   40.241722   24.018948
H   97.238899   31.956196    6.633419
H   79.996544    7.912112   14.045225
H    1.125972   38.261299   98.435173
H   56.651608   73.668121   38.946209
H   87.244759    2.853276   41.227409
H   85.345459   46.440739   52.001137
H   42.979603   35.719864   33.562347
H   74.585648   58.330357   75.012787
H   66.561775   66.087708   61.358131
H    0.650291   83.170670   67.271622
H   35.512802   24.807571   65.008911
H    3.064041    4.537157   33.836777
H   78.185150   70.193886   79.000862
H   59.995041   58.972359   17.744822
H   89.826820   59.980495   27.880508
H   57.364044   12.102498   47.391624
H   39.241009   25.043800   21.684639
H   29.108101   57.183731   51.388832
H   90.160316   88.535919   12.178497
H   65.056816   83.174377   20.744068
H   34.058716   53.685902    3.509777
H   34.344421   64.355400   95.673416
H   77.645630   11.184061   34.087505
H   55.243645   52.304131   29.622162
H   35.784988    3.555087   83.448669
H   84.417427   30.473246   85.719879
H   80.634270   78.161957   70.960640
H   47.260853   99.183006   13.270173
H   11.326258   42.286137   66.836975
H   62.855099   68.287720   51.468262
H   28.666616   39.508732   77.690491
H    5.370893   94.789452   84.411018
H   57.206745   67.829048   25.563608
H   89.136108   53.645351   34.269794
H   26.057035   31.189251    2.494658
H   26.715546   94.902031   66.002113
H   59.636696    7.928536   34.344055
H   11.744973   93.770737   51.020390
H   98.717705   34.250401   53.919891
H   73.153969   62.678829   69.091148
H   82.175705   73.369347   10.824302
H   76.332565   88.288361   69.689133
H   74.875175   50.625145   86.035988
H   78.290092   96.754089   16.757019
H   13.446546   70.905113   66.016243
H   94.219543   96.507584   95.970947
H   35.127888   83.917427   94.002121
H   40.769917   67.222427   78.373711
H   72.756378   55.618282    6.878909
H   81.969795   74.377403   39.389919
H   25.158531   68.789597   90.772919
H   21.815659   95.537903   74.795662
H   59.191246    3.943016   99.990379
H   23.603701   62.604641   26.271700
H   46.571220   69.629478    8.289440
H   11.401533   83.553696   65.416443
