100
TIME:    7.938, STEP:  7938
H   80.507805   94.068871   91.878555
H   81.248672   35.012783   78.622147
H   16.217882   44.995102   30.159615
H   82.808975    5.604153    5.053156
H   24.067728    9.022954   50.473022
H    4.919084   92.608269   64.873726
H   36.939655   97.348572   11.215107
H   95.975143   75.339256   79.353294
H   58.496681   23.086819    0.417618
H   57.944862   30.362917   18.524208
H   61.881607   85.645370   75.120605
H   52.871475   21.581280   27.893143
H   37.569893   81.509048   36.250446
H   62.038841   80.608742   61.326565
H   77.020943   60.971542   69.161652
H   82.353088   17.442627   74.117462
H   85.780220    7.008639   96.015808
H   70.816177    8.575945   24.356068
H   68.899017   11.360883   81.566254
H   78.652084   37.241100   56.788551
H   93.224556   65.965210   41.792187
H   23.404131   54.621796   43.284241
H   79.758461   30.063890    5.234012
H   81.503601   31.789766   17.528606
H   45.675362   56.638039   95.163857
H   10.179043   92.091232   43.881493
H   77.576859   12.502995   57.473125
H   62.755295   26.958700   29.159849
H   83.774803   69.289474   81.938927
H    5.371893   94.373642   14.436909
H   28.465143   33.871712   81.349785
H   66.967461   33.192898   64.403648
H   29.498613   87.700844   12.914685
H   13.500930   46.252327   37.335205
H   83.400703   58.652031    8.005466
H   62.674427    7.166905   94.470284
H   41.156445   13.828306   33.948574
H   35.900368   13.681330   82.603828
H   10.005342    8.462366   75.061272
H   15.522923   69.055115   62.581039
H   92.745926   28.554785   29.360319
H   31.242638   72.732025   85.209007
H   79.601654   11.105549   74.842812
H   72.474594   45.881371   56.870213
H   68.092171   18.700459   35.386505
H   75.659142   14.319526   15.410276
H    3.752574   56.533760    1.661092
H   56.672115   77.128815   59.736004
H   97.068001   75.024422   27.823391
H   92.400146   51.554874   28.507065
H   42.956532    3.280497   37.105072
H   90.914993   27.150991   52.956635
H   73.529305   68.035950   41.844948
H   92.867798   77.689957   82.098770
H    8.759247   54.253914   67.864624
H    3.482528    4.183718   22.398544
H   99.487640   60.498817   10.957364
H   34.975510   27.241453    9.089755
H   16.327324   74.177757    2.085526
H   35.192535   37.929523   37.834984
H   60.435833    9.418400   95.487648
H   17.182808   54.056290   36.184853
H   12.970950   65.608185   89.137970
H   88.128105   85.004700   11.620963
H   47.396484   26.849112   34.800735
H   13.704445   47.651787   15.540853
H   50.688110   22.800190   50.309185
H   32.033928   71.519951   45.684906
H   52.532181   79.412285   62.376694
H   91.241402   47.348614   85.007233
H   69.965080   55.300873   66.930855
H   19.592674   88.026756   37.898396
H   89.418320   25.666628   58.221844
H   55.459469   47.023167   31.503939
H   44.852142   40.003483    3.166262
H   13.314572   16.323742   61.801407
H   87.722374   38.746742   31.522409
H    4.921500   31.676357   52.826801
H   42.168488   30.202312    6.244383
H   10.238576   76.598808   37.055336
H   66.214577   11.404611   54.426331
H   36.957687   95.949692   22.911453
H   19.970415   39.869541   85.918015
H   96.271400   91.430786   38.403347
H   65.815598   52.350262   78.252983
H   68.601120    0.629003   93.021896
H   97.315849   26.195213    2.057739
H   83.693901   69.868347   13.273254
H   20.420483   52.196861   63.268196
H   64.513977   82.685318    7.982324
H   48.878376    2.061487    1.097865
H   65.630516   92.493179   84.777275
H   94.294708   65.700005   32.862305
H   14.443270   94.762169   62.045925
H   19.348412   38.692223   98.494110
H   49.567856   82.269348   57.440926
H   32.520836   23.224606   80.666893
H   22.955141   79.231133   19.525911
H   30.564873   71.080406   80.146858
H   32.270939   74.930161   33.047535
