200
TIME:    0.060, STEP:    60
H    3.940116   63.072376   12.261688
H   26.359938   30.250145   82.589897
H   21.910465   61.259583   36.482231
H   11.775083   74.869881   49.206650
H   17.121349   79.167175   56.246468
H   95.474304   57.700478   70.877800
H    0.751394   55.431847   46.167324
H   98.855019   81.113556   31.461567
H   80.118446   90.204742   52.110516
H   17.197567   77.420250    3.172171
H    5.919625   90.748970   87.273499
H   30.033478   37.218384    4.165597
H    6.756297   81.034065   68.668999
H   12.911907   52.447506   33.592098
H   28.312399   70.558937   43.421478
H   34.547047   33.382824   58.205986
H   75.739700   99.288239   24.171329
H   40.836548   74.513931   46.724941
H   59.036503   36.218304   39.834068
H   89.483589   82.176598   44.448414
H   55.924889   67.772812   34.087086
H   94.036293   41.934181   77.511185
H    0.395408   63.850204   53.455208
H    4.824277   86.464973   92.159309
H   95.422783    5.464493   51.833233
H   18.810095   54.348530   12.901525
H   95.410347   55.185001   41.844620
H   90.379425   62.703926    0.257647
H    3.487391   62.000923   39.392365
H    1.183497   15.942377    4.852207
H   13.596497   43.929111   15.974743
H   35.199291   59.287582   89.171516
H   31.472511    5.112343   70.980515
H    2.384163   63.381538   35.144089
H   56.626438   97.238754   35.588261
H   38.941002   54.026031   77.412422
H   81.098145   78.314041   84.603615
H   41.818638   40.099171   23.260590
H   59.732086   52.846157   40.430550
H   91.808975   40.428692   70.727631
H   80.451797   13.634685   95.549553
H    4.379995   46.881378   45.168434
H   79.942825   91.916908   43.644474
H   37.682266   54.492271   12.310691
H   22.627066   70.803360   37.868248
H   43.592827   18.523056   40.730251
H   76.582123   35.030769   92.232170
H   94.497993   65.553352   54.118607
H   80.119156   35.582912   61.036556
H   68.558334   16.989202   13.327814
H   82.490158   72.774406   35.002293
H   28.018991   32.599834   59.671021
H   47.322868   99.573448    5.573288
H   25.085541   78.385178   79.037605
H   84.817917   80.388077   96.594734
H    7.613127   76.784416   72.754059
H    5.944180   16.064308   51.585438
H   65.442123   54.394978    8.552232
H   31.979342   71.000290    2.772981
H   47.266422   96.999916   70.321716
H   51.002480   18.888254   47.495522
H   86.702591   15.998476   47.686710
H   66.488358   21.477640   90.957611
H   19.764809   64.895531   99.648705
H   68.454849   73.395660   10.568979
H   45.800476    9.568142   29.627823
H   92.898781   26.958794   82.116249
H   98.349419   91.040688   83.707863
H   10.120018    3.420806   64.258095
H   46.273113   38.492702   50.992207
H   58.544128   73.478882   68.466583
H   37.199009   28.553164   46.024822
H   71.780899   22.551220    5.522818
H    2.001224   12.921144   55.332836
H   76.953262   97.957558   76.076309
H   48.764046   25.431507   64.053665
H   96.188385   23.249224   74.691658
H   33.222164    2.692219   54.122627
H   10.162075   21.673750   38.925121
H   70.988342   91.670822    2.798072
H   35.728481   33.144104    3.805446
H   18.721840   71.827095   93.421806
H   11.701980   11.691852   95.546288
H   30.543856   55.973671   87.984833
H   45.318054   97.420471   62.883286
H   19.595993   92.072235   31.529846
H   27.787821    2.409029    1.358671
H   76.828377   25.243601    4.653024
H   60.181931   71.602974   76.511269
H   24.345695   77.979073   56.845791
H   48.788010   33.338917   81.555115
H   85.309242   86.956177   94.440231
H   38.708897   18.892166    0.856285
H   68.099731    0.900476   64.162193
H   20.563858   59.361046   60.442986
H   76.726295   23.684868   37.524708
H   76.863884   20.504988   90.576996
H   11.843004   25.641659   46.889317
H   41.096581   71.581161   52.243355
H   64.074699   95.002274   27.206461
H    1.835359   75.449585   60.463554
H   83.878883   73.933334   66.857491
H   19.448164   43.748016   27.987316
H   13.226572   67.607147   83.014389
H   25.577349   29.838226   19.251736
H   80.297096   35.585773   52.317970
H   57.131542   27.861750   57.096939
H   65.811378   27.363289   25.701788
H   68.222130   42.361763   90.428673
H   98.584686   30.570078    4.656298
H   44.826302   97.630959    0.669208
H   78.766327   58.818245   88.460838
H   60.220337   78.185883   97.850624
H   63.833916   23.277924   79.595703
H   69.857033   74.473145   33.084019
H   21.384274   11.063196   70.814117
H   39.975605    5.908059   82.081711
H   41.684353   18.136692   37.576530
H   12.026443   50.955647   92.435837
H   66.032417   43.082333   42.628052
H   38.675911   20.563297   93.418114
H   26.055744   31.744099   42.893440
H   27.896795   29.414120   18.689451
H    6.729308   73.796638   25.747551
H   82.301170   13.406246   98.766449
H   41.127804   57.427120   29.006842
H   99.860817   48.349472   78.006363
H   79.365898   86.158226   33.482342
H   90.252602   58.999249   88.992287
H   59.020676   25.002502   63.435051
H   41.342873   91.612701   96.532547
H   88.609032   84.266098    5.082202
H   93.025520   73.837257   96.036194
H    9.746896    8.387840   47.491287
H   95.533981    4.624765   64.688217
H   67.152237    1.857864   86.333427
H   68.594711   86.105843   46.377937
H   89.683006   69.840431   86.042458
H   41.608337   41.816391   71.592659
H   43.350441   17.722986    0.459077
H   41.706371   68.362579    9.095601
H   65.524734   35.541695   42.050800
H   60.791862   53.447926    5.455433
H   65.961067   33.043564   75.141640
H   31.841091   75.736771   43.182621
H   39.344902   58.874153   38.467003
H   40.474052   97.566063   48.570728
H   47.567451   80.118980   69.857689
H   60.373264   72.306931   99.733856
H    3.695497   86.663925   96.724159
H   82.564827   58.253002   52.703068
H   26.210497   12.090269   53.793121
H   67.813782   38.569088    9.783737
H    5.151610   97.010666   80.400612
H    6.474839   49.125393   57.496452
H   58.158623   43.082584   48.523163
H   57.427105   55.485867   78.624435
H   43.486938   39.547928    5.507049
H   20.620100    2.412566    9.280038
H   65.697151   64.288177   71.333420
H   52.187836   91.722160   88.201805
H   52.055340   23.989109   37.103348
H   57.471249   42.417618   37.306896
H    4.667604   14.891768   78.900208
H   60.677666   15.980649    8.055918
H    8.812461   70.165871   63.285786
H   77.999352    0.478254   50.313511
H   23.474972   22.742943   40.569477
H   91.627129   28.755575   37.281967
H   18.258614   11.818070   92.430328
H   82.803711    3.493202   35.991180
H   52.381203   72.132294   56.905365
H   34.195084   85.188614   95.488724
H   73.438072   78.859161   70.074661
H   79.803955   96.390610    7.694461
H   95.349716   46.688560   23.114054
H   37.266880   47.298210   79.378212
H    0.134704    9.029198   62.578564
H   80.204842   25.563982   71.240097
H   94.862999   52.524254   83.845787
H   84.704102   78.739067   45.904404
H   15.597048   29.886318   63.044971
H   73.921585   90.352524    2.507473
H   47.561546   24.886972   70.568275
H   83.195236   96.141541   79.138412
H   95.492119   34.704910   83.053322
H   25.084669    7.607863   95.277115
H   99.068665   59.600437   19.228291
H   11.831047   60.370716   64.486221
H   46.340332   59.252468   63.428852
H   39.221409   36.979622   80.586861
H   49.128517   80.037537   26.917097
H    0.102254   13.241759   53.682907
H   38.248402   56.346710   29.685514
H   91.071671   62.295269   22.405083
H   74.888687    9.941761   32.032463
H    8.264800   80.651268   97.391312
H   34.140839    0.983454   52.043083
H   14.313651   11.108240   86.067299
H    9.885197   41.090839    0.249599
