100
TIME:    4.629, STEP:  4629
H    4.282426   97.518532   94.908035
H   72.633766   55.703804   69.980164
H   59.322983    6.933135   69.008842
H   82.253571   41.936150   86.431892
H   53.709518   43.792267   40.192688
H   56.242161   96.193153   37.171482
H   10.365028   73.910645   52.446835
H   56.056023   89.069458   83.174614
H   39.838280   41.233978    8.707342
H   48.341499   82.848946   88.955841
H   69.676727   52.500340   93.860931
H   79.165291   55.718452   63.431725
H   48.681015   81.665123   65.061279
H   25.879936   90.807991    9.508311
H   36.807152   56.546356   28.260014
H   15.401974    6.859777   48.793884
H   51.870522   88.143280   94.784477
H    0.056157   69.584969   39.060986
H   17.366627   72.546860    7.237041
H   67.801659    7.514051   31.496439
H   89.585304   95.385223   31.605564
H    6.167084   50.229050   25.076141
H   23.940208   56.974861   99.908112
H   88.957214   92.199249   63.284378
H   64.024445   19.056374   70.726051
H   25.444727   89.810715   55.127453
H   62.916077   50.056049   91.813454
H   41.960125   72.505783   19.781130
H   11.824286   69.071098   38.356209
H   78.489929   76.271812   51.380592
H   98.234459   37.146999   43.147194
H   58.035076   24.618217   70.734337
H   96.417336   29.802187   14.813832
H   73.687637   49.502472   76.739021
H   65.706848    9.003233    6.603096
H   75.028809   47.992008    4.874474
H   23.780672   35.012680   73.212448
H   72.665611   74.241173   49.096424
H   49.682255   80.559868   95.728134
H   27.193712   78.832161    2.233999
H   18.892303   15.016835   51.402935
H   15.592726   19.609522   20.275293
H   51.113125   91.258682   35.831535
H   83.766296   90.345825   33.334206
H   55.123501   49.253494   52.226826
H   18.367252   51.207905    1.965246
H   77.898727   76.578392   69.900978
H   56.486629   43.047165   54.994209
H    0.342987   49.075260   59.823357
H   22.961643    1.187689   59.904724
H   43.191456   22.743584    2.223845
H   30.092520   34.202488   70.177704
H    4.890722   48.849243   34.023685
H   69.492546   31.678146   36.080589
H   72.227020   64.263191   39.719173
H   99.358139    7.664464   35.044724
H   89.710602   55.978920   96.243767
H   81.370743   39.736000   94.322006
H   55.355156   34.356247   56.113098
H   53.551548   83.588455   31.950813
H   51.701752   63.300190   53.481750
H   34.622368   84.856003   85.906601
H   88.323296   91.408127   16.046043
H   60.905884   66.979294    1.459866
H   16.054617   91.133423   26.647978
H   16.978428   12.151478   19.885931
H   16.175135    8.400100   90.549789
H   60.609077   82.274368   87.495567
H   87.610641   17.175903   69.910919
H   24.170225   80.968262   91.985779
H   75.040627   80.442612    6.618736
H   92.285126   97.897263   95.535240
H    5.171506   89.337593   43.061874
H   28.306438   56.448284   28.113884
H   85.353767   35.238880   52.307827
H   35.090698    4.247713   84.456314
H   87.238235   25.335068   72.914940
H   49.459164   48.042042   70.083427
H   83.490074   39.921894   69.331978
H   72.510254   56.849682   22.128624
H    1.454354   77.170792   56.653225
H   88.644493   74.458450   99.702904
H   10.668322   84.532532   70.787155
H   68.616623    8.272352   40.629013
H   26.935759   59.339478   99.022881
H   44.756557   79.086327   63.235016
H   76.315163   66.786911   44.272171
H   30.465696   34.685143   47.603561
H   51.748886   36.436378   90.331551
H   57.073574   18.825317   89.693100
H   13.460471   23.384907   31.217813
H   20.797361   43.624702   21.730192
H   82.181450   66.412346   76.972214
H   94.637772   94.015564   38.928303
H   76.557884   35.092163   22.455750
H   76.257996   12.937675   28.355263
H   95.174431   33.329311   70.970856
H   23.857130   55.650848   81.962090
H   88.198334   56.804096   57.310616
H   26.736185   59.843258   51.814556
