100
TIME:    0.316, STEP:   316
H   95.953041   93.042580   98.856705
H   92.480080   21.877747   97.933746
H   85.193756   96.638512   19.629509
H   81.529648   19.631048   22.841879
H   92.340668   98.086319   57.137047
H   23.116203    0.869724   10.039721
H   36.409069   82.675621   15.164365
H   95.049316   15.940500   79.180305
H   45.860115   55.911301   80.196480
H   66.204811   20.923592   20.063547
H   70.861481   78.957535    9.311104
H   43.780468   39.530006   70.435875
H   23.161968   42.589035   93.721306
H   39.435444    4.102966   81.287971
H   84.346107   41.796318   35.582378
H   88.817993   84.097786    6.808993
H   98.660637    2.894650    2.126163
H    7.897402   79.333496   88.591110
H   50.184921   91.609070   80.010376
H   84.095558   98.906372   37.746178
H   45.524658   24.758461   48.665359
H   92.647865   44.517021   92.348518
H   81.524971   92.052208   23.309280
H   89.681686   40.471684   83.606094
H   18.281443   61.113346   38.891922
H   45.210041   18.193722   59.554070
H   34.829502   29.340885    6.236830
H    5.878249   71.188995   77.220474
H   18.042435   77.762077   42.234283
H   13.110663   83.018723    8.509972
H   28.532290   50.379768   84.406364
H   85.709869   43.780083   70.010384
H   92.616150   45.361855   26.264730
H   91.453651   44.763123   58.438560
H   72.917152   35.033096   43.970100
H    0.029655    9.309031   19.557020
H   10.107869   92.962746   33.364758
H   50.928268   53.170528   44.740063
H   36.514027   73.762321   11.839133
H   33.430035   82.600563   62.897469
H   13.647114   67.021584   49.784748
H    3.220897   26.039484   17.646200
H   13.963180   65.394897   24.298443
H   59.180588   18.067434   11.628731
H   29.245140   19.424038   83.148254
H   73.915611   69.144585   84.557487
H   39.416737   42.787754   30.323431
H   56.256290   98.636337   88.130249
H   74.265373    6.278815   31.868193
H   32.517315   35.559116   61.562172
H   43.520512   39.136131   56.748737
H   20.489756   34.416267   53.318108
H   15.434074   23.841003   84.517555
H   69.369263    2.046118   45.760212
H   15.602297   86.207153    3.087555
H   93.961624   12.199842   81.869415
H   16.285439   80.428810   86.041603
H    2.529086   47.044456    5.415281
H   15.199677   52.120605   87.224136
H   38.165573   52.077431   54.621788
H   79.634048   63.873543   89.758087
H   87.695679   25.004074   81.057220
H   95.666573   85.604439   11.879249
H   64.739754   43.513443   18.560705
H   44.865028   35.605610   24.989317
H   81.933052   26.563831   64.870247
H   62.215416   59.285496   82.318466
H   58.537514   35.610092   81.309227
H   72.652794   27.080574   40.413891
H   36.787895   64.039207    1.066264
H   11.997747   73.903862   58.357487
H   47.910999   41.038155   79.758125
H   86.387680    2.677204   53.646748
H   23.235550   29.382265   84.427788
H   77.406662   29.093328   25.353107
H   33.128979   27.824827   74.666092
H   95.645447   99.155388   96.624695
H   46.826584   30.057941   31.891636
H   76.700096   52.575970   21.211967
H   84.028244   91.744209   93.697571
H   17.065670   32.550823   98.875610
H   65.033913   46.291275   60.356781
H   37.790234   12.531764   59.997284
H   71.908539   39.202122   34.567055
H   36.943558   29.117783   17.119671
H   44.020428   20.661041   63.727253
H   88.259636   80.377144   38.611263
H   61.042145   79.994362   92.454170
H   62.240913   76.577934   25.615425
H   38.397194   96.284409   35.508495
H   36.954594   90.494781   40.135082
H    1.667455   19.272306   39.545189
H    5.559486   37.099487   43.361626
H   77.770729   32.399979   48.124378
H   51.128574   21.423992   23.347988
H   20.021927   83.252922   51.127174
H   37.519432   85.815086   19.015572
H    8.025405   18.928223   50.979431
H   93.658684   38.212444   18.582325
H   58.866161   70.587273   67.250717
