100
TIME:    8.957, STEP:  8957
H   11.596967    0.622210   90.945633
H   53.105515   90.230316   42.872738
H   33.733501   18.306305   18.198772
H   82.980011   63.622124   49.199669
H   14.936750   90.700302   22.844261
H   89.119751   91.504311   65.788544
H   83.533333   66.158791   90.902229
H   15.883759   63.495113   85.791740
H   33.447716   25.113480   36.275814
H   30.112413   44.994251   58.423500
H   67.096710   26.645695   76.965370
H   13.976387   72.658775   55.359825
H   72.591461   19.832901   34.985565
H   11.584693   77.467903   38.872105
H   89.397713   69.949440   20.159088
H   41.382248   28.317101   89.531311
H    3.838299   74.405952   88.779396
H   92.603989   58.991310   89.032791
H   84.774246   54.112049   35.250942
H   51.196697   15.602129   26.166773
H   32.755638   64.520599   14.136301
H   21.096659   55.974533   56.506989
H   66.153343   21.780317   76.079834
H   86.823563   43.979950   41.849560
H    9.231263   75.825958    2.688151
H    5.373327   62.051132   47.988796
H   89.706856   70.146744   77.688950
H   76.775543   74.522186   62.845795
H    5.932051   61.741055   33.769035
H   44.443672   69.153641   95.444824
H   68.571800   25.247551    0.729760
H   31.307636    5.041311   70.069725
H    1.275141   13.145782    4.714253
H   56.556854   52.867065   94.407982
H   58.040764   81.499428   70.004929
H   51.254002   86.982742   91.267250
H   38.891891   76.510017   14.241763
H   93.783302   95.034050   54.510811
H   66.996117   86.260277   76.312683
H   19.544508   73.659569   42.752899
H   23.103769   63.516052   53.367519
H   45.366776   76.728043   37.231686
H   88.371124   17.218521   48.445698
H    7.410512   62.991951   56.501385
H   79.702011   78.503395   22.586287
H   62.505821   33.751873   19.550119
H   11.719066   11.950216   11.446951
H   56.734310   87.624191   22.785542
H   26.852562   90.631874   87.175690
H   13.791401   67.066246   57.260273
H   42.886562    4.902637   47.849228
H   40.439663   32.595547   86.064613
H   94.659996   73.944458   82.664474
H   69.264862   61.067017   27.063301
H   27.625561   43.553719   76.525253
H    4.751692    3.111829   87.709366
H   64.085266   31.096214    7.872692
H   59.099060   31.009443   82.842796
H   96.697823   17.233854   23.856295
H   67.947990   16.252476    8.852196
H   24.715204   62.027424   16.038456
H   81.016472   44.571579   90.078896
H   82.151810   96.073021   19.262085
H   58.102070   90.555588   83.957092
H   87.841858   45.463558   29.695452
H   51.106178   96.994713   75.792107
H   68.931564   58.026798   99.505295
H   61.644501   29.798386   94.399002
H    3.316428    6.193428   98.464386
H   11.937011   98.532425   82.845963
H   37.601879   85.965172   54.709572
H   35.680191   54.192772   12.590764
H   22.978699   75.259850   32.092243
H   33.030460   82.530983   70.959175
H   93.939407   41.503933   80.427460
H   37.407074   81.633049   93.237167
H   80.269363   50.549961   49.597679
H   52.790005   65.050148    9.110450
H   91.034599   27.209187   17.616594
H   60.265556   21.089163   49.267632
H   86.163567   21.946634   15.331071
H   13.422558    2.560523   37.661423
H   84.424385   56.910923   82.962532
H   66.375191   78.629005   45.333309
H   16.199677   88.606491   79.473007
H   45.147419   38.059258   63.784470
H   65.372627   52.105293   50.647545
H    0.082231   88.326637    2.707779
H   41.568851   95.461311   54.934090
H   74.420303   40.761696   44.407303
H   90.580009   57.081059   22.617577
H   41.026196   69.131454    4.196046
H   59.614460   96.268761   11.663142
H   12.924967   56.583729   30.754339
H    1.728183   47.416691   21.908148
H   33.733093   42.029297    4.808142
H   51.637627   81.702705   22.063160
H   20.988230   29.653175   99.067528
H   82.022301   75.480690   94.794197
H   95.565826   48.781765   34.883923
