100
TIME:    7.494, STEP:  7494
H   10.533848   34.784950   92.285049
H   93.511246   10.951896   50.626629
H    8.585955   13.052440   35.372303
H   82.734451   23.898083   29.390629
H   28.046289   73.434486   62.512024
H   11.804925   93.089287   20.901718
H   60.208057   67.369629   76.493713
H   30.872673   36.927944   20.119225
H   69.411049   65.775833   28.365871
H   70.071938   23.987734    1.138253
H    3.181401   67.779953   17.889837
H   69.817734   99.326324   59.497841
H   65.882210    8.384285   80.373253
H   84.023399   81.977272   27.536739
H   71.628120    0.631815   90.516144
H    0.204978   56.276367   10.973270
H   21.484322   77.640137   55.596737
H   61.323582   30.180817   39.746101
H   61.982830   92.734787   58.173359
H   90.616562   46.668377   26.558939
H   19.572128   10.165398   53.841351
H   80.837418   54.032379   81.094971
H   85.686501   33.674004   17.937929
H   22.756933   26.478243   50.504700
H   61.555733   91.847916   91.884804
H   12.272488    5.179657   85.663948
H   15.862551   30.959684   48.662365
H    0.220370    6.234275   14.483630
H   74.120567   29.006037    2.927386
H   88.346878    5.362942   79.140282
H   10.990733   94.057404   16.477577
H   38.932919   45.458858    5.506930
H   98.223640   20.185545   72.915657
H   94.740608   86.942390   56.040710
H   94.450569   92.269096   80.993088
H   24.078156   72.390961   95.865913
H   98.571487   30.089766   98.963348
H   54.250191   21.807583   51.271278
H   28.747837   18.135233   18.088028
H   57.341675   10.619792   27.646467
H   23.089533   13.321416   18.899870
H   68.660423   70.990875   62.540401
H   75.780609    8.442165   42.772663
H    0.827476   38.428978   13.459350
H    6.607197   36.216969   97.391426
H   81.390709    5.852484   13.606459
H    0.281710   32.388008   97.398613
H   56.645016   72.555756   32.263775
H   84.087288   11.797573   45.535973
H   83.077881   44.796909   59.552864
H   42.987019   46.146439   32.423615
H   69.336929   68.352005   82.102264
H   64.322212   65.461487   67.630226
H    3.151054   84.932327   62.505753
H   44.111801   15.342973   64.091003
H    2.929527    4.650763   37.513351
H   71.337921   73.310158   68.729195
H   68.037033   69.171516   20.526972
H   81.309380   55.416500   36.171547
H   64.490654    3.801005   50.463402
H   32.428387   30.066338   30.104836
H   32.941231   58.188980   56.275826
H   82.828590   95.905548   19.584381
H   57.640339   82.586060   23.676594
H   29.771790   62.312092   93.452202
H   40.979065   69.724419   89.287613
H   86.310547    7.450411   28.873148
H   62.703911   46.127617   24.459137
H   30.401962   11.315277   90.221741
H   82.224007   25.049021   85.948944
H   84.063652   85.510162   72.255928
H   56.154011    2.769090    5.354009
H   18.368357   47.627964   69.605530
H   65.232689   75.123413   57.885376
H   23.464453   39.349705   69.501831
H    2.817523   87.868065   91.678474
H   47.398151   77.176216   23.648279
H   84.062073   60.707233   28.305040
H   20.878355   31.506481    1.289374
H   32.011642    0.785252   75.306435
H   57.522377    6.811227   27.889038
H    3.640921   93.070358   60.055271
H   91.886955   32.444248   43.634216
H   65.723366   53.437130   78.955772
H   87.434311   80.125938   21.293413
H   78.817673   84.321747   62.189316
H   67.662102   58.477623   80.886147
H   76.553154    5.396193   17.876801
H   11.204923   76.918480   66.899544
H    3.767989    0.950634   92.109802
H   30.708088   78.085335   91.721359
H   32.779011   59.099686   76.315422
H   65.833344   52.377590   98.527107
H   71.531685   67.825157   32.107632
H   27.026070   78.463058   88.291107
H   12.895308   99.802795   80.373970
H   67.763878   97.745209    6.201707
H   23.812166   57.261166   28.439989
H   51.716118   69.163109   17.335857
H    4.693350   86.325546   75.819946
