100
TIME:    4.900, STEP:  4900
H   85.955727   72.666389   94.659927
H   65.149178   70.388824   87.066528
H   63.981209   26.429249   65.828926
H   82.299057   30.771179   71.578499
H   51.282196   65.514114   32.844559
H   52.038799   95.899559   64.010551
H   96.161842   92.208603   73.639389
H   34.755959   12.514766   58.293049
H   33.176582   15.178495   91.649132
H   40.935478   86.740105   99.566589
H   44.468964   63.404682   67.755844
H   68.823326   69.302361   44.141335
H   31.387894   65.277596   38.133301
H   12.462331   89.972694   30.132280
H   40.102852   32.339294   15.233284
H    4.504951   83.157059   26.298504
H   30.078377    6.068534   19.454679
H    5.851202   56.399227   29.666224
H   21.587563   83.914337   21.513597
H   60.500008    1.758984   49.947395
H   73.503777   68.407623   24.250198
H   32.148117   50.588806    1.998026
H   20.321968   54.770836   92.154739
H   63.778378   95.446503   43.156624
H   54.331696   97.564255   72.727455
H   24.209356   81.800964   29.644606
H   39.546379   38.789883   97.189125
H   19.094330   85.155151   28.739893
H   17.717216   93.658592   25.546093
H   88.881516   69.564629   72.924629
H    8.900218   61.447102   21.706535
H   75.146248   17.131561   45.646492
H   15.506361    9.975264   39.227654
H   85.137817   24.666870   65.321922
H   58.970718   88.517563   23.104340
H   98.586655   69.217644    4.021861
H   49.772369   25.087643   94.566269
H   61.464008   69.283150   68.219795
H   38.242413   74.654900   69.465912
H    1.668589   53.462265   23.555773
H    0.371975   24.314680   57.787579
H   91.236382   31.771978   33.005299
H   53.447407   92.883789   55.405182
H   66.460770   94.889160   59.831429
H   31.617327   38.562111   75.416649
H   14.870831   56.376820    3.066873
H   80.015915   91.316002   72.501976
H   56.501102   45.838379   71.762169
H    8.264069   26.631832   49.012054
H   28.645382    5.312483   40.951347
H   43.170780   96.579727    5.080704
H   43.262764    9.055628   52.387016
H   10.512059   50.420593   18.284208
H   63.215675   27.255623   48.039391
H   50.649902   88.015388   42.024509
H   99.697220    7.379398   25.819244
H    6.891450   48.159386   22.018349
H   61.191299   14.142984   87.341904
H   76.728813   45.806427   35.307182
H   35.669170    4.417515   24.242928
H   68.796387   50.698376   32.353294
H   25.004805   82.333572   73.645935
H    6.720899   72.915817   97.462738
H   79.514320   68.455536   94.103058
H   26.811129   69.490143   51.884907
H    0.331392   98.679680   35.909569
H   94.431915   17.768856    3.633597
H   41.889336   97.772842    0.450935
H    1.116122   97.703590   52.914177
H   29.660646   94.597656   91.415131
H   66.435417   62.004059    3.367722
H   69.938873   88.903351   15.376430
H   87.501831   75.931496   36.112785
H   22.340847   39.297825   12.012375
H   98.420784   35.625515   72.851166
H   41.498085   21.616358   66.220383
H   11.842833    1.846474   77.707558
H   62.191235   30.321033   85.048470
H   96.486794   39.125881   72.354759
H   59.219940   42.089329   98.781952
H    6.757395   79.974411   72.850533
H    8.977641   76.228287   77.042381
H   27.810511   89.064636   96.594513
H   87.261932   31.463034   15.878179
H   13.739608   42.387505   72.752388
H   38.518711   89.039589   82.054001
H   94.414635   47.083008   57.194458
H   34.827896   12.988939   44.785469
H   57.372665   21.348013   88.115120
H   33.112553    7.674934   99.381714
H   24.550896   38.017681   36.940838
H   40.849277   64.006088   26.893240
H   99.553139   74.546150   97.929062
H   20.831085   10.453465   57.199383
H   71.872780   10.816872   28.682224
H   98.641464    2.236589   14.357780
H   73.663475   48.881542   55.385544
H   24.851629   57.958252   77.624336
H   75.288452   57.972271   34.610809
H   43.568241   52.890034   25.707651
