100
TIME:    2.948, STEP:  2948
H   17.961151   51.674675   96.447037
H   19.266335   64.582352   63.958942
H   30.428228   85.995285   88.733711
H   81.971420   11.192247   78.573914
H   68.766083    9.052701   85.772781
H   82.306404   98.014305   70.696892
H   98.466423   60.401993   20.990379
H   88.179306   43.640972   37.518589
H   81.160469    2.855137   14.520519
H   94.280693   58.712273   23.129915
H   26.039246   84.861832   55.782543
H   43.324631   71.458725   83.087456
H   55.739082   83.349182   32.122009
H    9.113448   95.989296   81.584328
H   16.359177    6.700268    9.063916
H   82.991364   53.886261   88.331398
H   87.046455   76.957367   41.756420
H   64.142296   51.339455   97.341492
H   91.182671    2.023812   18.675020
H   13.095886   43.210461   17.046137
H   89.338226   62.735588   77.227905
H   45.007980   47.997498   68.228851
H   46.383980   70.646324   48.005112
H   45.140381   72.038330   88.129372
H   24.146339   52.368919   58.312332
H   33.141621   39.768398   12.855661
H    7.869095   19.931692   58.466297
H   83.798058   94.042397   64.219536
H   75.272049   16.557734   17.818674
H   14.033109   17.877365   17.746105
H   32.076855   86.408356   76.142570
H   51.895668   71.059532   26.352913
H   78.011200   52.792366   63.376076
H    2.660674    3.556200   47.555984
H    7.491539   36.074036    4.242149
H   28.871807   16.065237   10.506135
H   62.549652   96.572739   40.756100
H   42.144470    4.997406   30.473667
H   20.635956   17.185091   58.629044
H   85.524612   36.201263   69.977699
H   33.776348   57.334568   11.799640
H   66.671715   44.166824   41.300247
H   36.633686   81.178223   14.411038
H   91.109833   62.181267   68.972984
H    0.938840   15.579306    8.379008
H   40.054348   19.145374   95.139259
H   64.765915   85.159576   53.758980
H   56.396854   25.735720   50.983452
H   51.200958   88.296379   26.876612
H   87.710167   75.614021   77.477081
H   43.319706   85.032898   84.500076
H   48.399555   90.186768   80.531456
H   70.030861   39.102234   31.653725
H    8.426510   59.110847   61.903473
H    6.068481   16.939095   25.422235
H   97.254837    9.433744   92.269928
H   83.141975    4.483346   36.366859
H    6.542327   98.485046   37.622879
H   22.779510   63.328991   85.163933
H   64.479752   54.381977   79.762459
H   45.663094   41.475933   84.546463
H   94.284325    0.502614   61.968834
H   74.200920    6.116564   31.317276
H   45.473640   57.830887   47.104084
H   49.334362   25.391830   70.103477
H   20.244728   95.719124   20.493313
H   51.045174   50.281345    9.391322
H   76.727180   86.136047    7.134048
H    3.828840   37.961845   75.339851
H   90.111633   96.418037   95.525482
H   28.420780   94.817421   26.785957
H   30.891382   53.686768   72.461395
H   14.776365   72.485100   86.160149
H   65.316460   62.825615   28.000145
H    4.307337   32.840603   24.876629
H   95.348534   96.511467   97.567108
H   34.614025   71.034561   43.186558
H   70.482727   57.959248   77.247604
H    2.881342   44.859524   50.572632
H   54.949898   48.400188   66.948380
H   68.570541   59.780071   56.183643
H   62.517044   63.480240   40.267921
H    4.318909   56.463989   10.682270
H   52.967213   64.425751   94.163025
H    8.785848   64.486847   61.976891
H   83.443176   17.338551   46.501339
H   64.044975   89.009300   64.115326
H    3.411333   69.270416   65.084846
H   16.862072   30.031775    4.081340
H    5.695238   87.986160   29.602177
H   44.666931   32.615665   95.718094
H   96.413223   17.212595   89.696648
H   74.427155   15.970959   46.977806
H   32.163204   92.050591   25.587536
H    5.620321   85.665649   83.829216
H   37.414322   79.318245   15.181152
H   28.603695   36.860104   67.647392
H   17.688299   41.338135    8.865818
H   68.277550   49.557964   98.110802
H   22.322969    2.984576   13.749057
