100
TIME:    6.983, STEP:  6983
H   45.090164   81.646370   92.752884
H    7.623388   83.262596   18.405354
H   99.801834   76.289116   41.372280
H   82.648682   44.951385   57.402035
H   32.624954   32.475582   76.367722
H   19.730305   93.642891   70.296799
H   86.991028   32.863316   36.532848
H   71.036263   92.720551   67.038872
H   81.972404   14.906533   60.533169
H   84.028999   16.650530   81.130440
H   50.713379   47.218632   67.110725
H   89.318634   73.712387   95.871971
H   98.466988   39.312222   31.155437
H    9.325060   83.552315   88.649162
H   65.421516   46.276848   15.090809
H   20.752518    0.970172   53.391113
H   62.575783   43.841419    9.078393
H   50.395748   55.046219   57.457535
H   54.025745   71.300171   31.253384
H    4.385254   57.518238   91.767754
H   49.895599   61.038498   67.709785
H   31.847351   53.354019   24.611298
H   92.509087   37.829933   32.559631
H   70.237343   20.365206   88.455261
H   79.832466   32.373299   88.110939
H   14.681835   20.241978   33.751282
H   59.927944   52.203171   38.522053
H   43.336296   82.382545   97.592300
H   63.009499   82.644539   27.081392
H   68.752411   18.010887   38.516655
H   90.880089   48.234360   56.906273
H    6.668197   59.575764   52.812767
H   62.231380   57.572701   26.880743
H   73.150047   33.772354   77.568893
H    7.168163   30.958931   49.903717
H   79.658058   32.367722   97.472145
H   49.559181   48.803345   58.698399
H   75.371117   31.160374   15.212935
H   50.318905   29.267744   67.607758
H    5.473255   58.459003   87.442551
H   58.012878   95.788200    6.861669
H   11.724833   68.986984   36.454731
H   71.382965    5.376875    5.864153
H   33.455402   29.852011   63.495392
H   50.931732   56.376736   53.664494
H   87.987175   96.106888   11.530443
H   96.289352    4.596779   92.494148
H   56.613827   67.292618    0.646409
H   69.147774   54.117100   65.921494
H   72.348877   37.019161   95.280312
H   43.022106   95.479584   27.037518
H   44.501606   15.768188   15.646014
H   53.721981   62.498535   97.306526
H   14.983368   93.267578   39.956131
H   84.797806   70.562416   59.744122
H    2.293077    5.188285   54.908997
H   38.943401   88.054741   20.128990
H    6.087409   17.429274   33.690414
H   41.011017   33.822041   75.399467
H   98.213722   64.525955   64.997459
H    0.193144   53.828590   69.945419
H   51.077614   62.945297   79.395950
H   48.136883   30.776093   54.625183
H   22.549381   79.802444   37.551785
H    9.489215    3.123206   45.865635
H   72.370758   95.127831   59.073303
H   27.309668   89.782898    4.200803
H   98.002022   16.902552    0.030380
H    4.932639   48.032486   22.270649
H   71.857384   99.365654   87.028931
H    0.289738   20.278503   78.384560
H   98.219688   19.754982   67.900261
H   51.686768   72.901352   82.704895
H   76.484108    7.465817   88.247833
H   98.850334   38.597332   30.757332
H   90.738853   55.118595   26.062468
H    0.987913   21.403980   14.585936
H   60.054363   94.118797    0.083373
H   96.374428   33.007450   95.588905
H   57.071976   28.622940   19.329369
H   47.519608    1.524353   97.347122
H   65.294319   89.756531    2.807029
H   59.566856   23.898474   94.968445
H   30.569229    9.709351   25.628170
H   12.315306   12.093486   70.828865
H   90.575912   65.553787   26.704071
H   33.533573   95.631477   56.519768
H   68.334862   46.287556   23.175026
H    0.599065    5.370396   71.078865
H   48.948147   21.975895   73.840866
H    9.795887   50.492805   80.929977
H   94.970184   20.667660   66.576668
H   33.077137   37.044315   59.010689
H   22.146873   36.823326   97.652023
H   35.861443   24.234848   76.548462
H   70.688751   19.980745    6.767878
H    8.324921   68.419785   35.590897
H   24.798517   31.978611   38.697937
H   76.059105   66.956490   60.138813
H   72.951241   99.440506   25.045658
