100
TIME:    0.807, STEP:   807
H   62.748207   48.015266   98.407181
H   78.822044   48.500088   28.905485
H   93.629822   31.962311   13.864365
H   81.612061   99.400658   95.928337
H   87.942825   37.442131   43.823647
H   15.502392    0.335338   58.666241
H   10.676212   15.829456   53.561222
H   56.457687   58.416767   34.098061
H   33.790398    8.703651   49.289925
H   52.786522   27.971752   39.291931
H   25.189850   98.714111   62.014236
H   25.039066   64.141441   35.485390
H   91.929306   12.882896   44.919456
H   15.123726    2.589101   18.652752
H   90.317284   97.940247   11.980055
H   69.076401   41.151272   66.052231
H   59.184944   35.365189   46.830345
H   18.389320   55.456284   71.569138
H   57.830574   12.206798    5.879702
H   70.804634   88.612274   71.243202
H   16.388016   75.878387   35.340721
H   39.728321   45.165085   50.541584
H   74.969414   88.058937    9.260235
H   44.062500   46.360447   47.140480
H    0.721743   22.173336   42.516838
H   42.958675    3.564252   13.533355
H   92.490158    8.930301   15.980177
H   64.447594   94.107224   93.448288
H   28.718628   22.309278   19.024914
H   31.936495   70.866592   47.542507
H   47.846836   94.410637   45.552513
H   16.711462   30.215698   24.556023
H   27.201427    9.438578   70.497887
H   12.199727   99.766090   37.752968
H   60.712578   97.917000   73.868423
H   42.720825   47.879284   17.867559
H   57.200115   74.981789   72.053780
H   30.636009   44.183796   79.388786
H   14.440081   63.280922   64.780701
H   87.182945   36.634510    1.526741
H   80.091675   83.871239   61.356243
H   59.092613   48.077393   40.714268
H   18.191999   68.339279   59.762543
H   27.826544   26.295595   59.637093
H   86.654060    0.052156   25.164885
H   67.644753   78.374809   86.482948
H   44.601246   69.275208   34.518990
H   56.282513    3.692252   18.510481
H   88.620171   65.612411   12.281882
H   42.815159   43.032452   27.222290
H   43.483051   91.732582   61.925755
H   44.351082   88.855423   21.083496
H   25.619486   26.687988   56.001701
H   58.001820   94.036369   67.427261
H   76.515045   29.250422    7.254028
H   94.575974   11.683826   65.154617
H   47.411224   66.261314   32.739952
H   65.967712    0.676121   92.768265
H   53.922417   72.866135   49.530117
H    5.765872   89.816147   40.656578
H   10.606575   41.041473   51.474861
H   70.269135   20.433914   58.842377
H   28.970875   52.122398   78.194679
H   98.454048   46.184364    5.228575
H   64.355568   96.389977   70.716301
H   51.769997    2.154795   93.902000
H   22.821699   76.261475    6.023755
H   24.620934   63.690353    4.781867
H   97.121880   91.800461    9.617950
H   46.733612   88.733055    0.033767
H   96.405540   40.494106   52.468723
H    7.426683   24.742912   15.705950
H   54.374084   78.388344   41.056332
H   12.428555   98.310532   55.246193
H    1.081479   29.791964   62.574024
H   44.737934   59.294998   41.628620
H   40.225353   56.600456    5.313692
H   69.894653   97.952599   59.009167
H    0.232701   51.138523   26.686794
H   59.948746   65.005028   51.397369
H   26.674244   37.630444   28.220711
H    1.872496   49.497879   19.297096
H   68.856667   20.726606    6.762640
H    5.683311   81.217628   89.719551
H   13.035007   98.404709   69.522881
H   32.718647   38.697010   97.823647
H   21.052435   44.677452   62.023968
H   68.946274   40.683495   87.352074
H   72.430122   49.239388   21.597805
H   94.986801   76.078308   53.062405
H   57.048313   17.007872   50.504101
H   37.996784   56.200050   48.899033
H   37.062050   51.810158   81.346397
H   25.227205   62.184685   81.230019
H   42.640064   77.443817   34.629601
H   60.576477   63.863457   25.766533
H   98.546860   13.992312   90.777542
H    9.828183   23.108795   43.124001
H   70.268456   40.328953   77.452492
H   89.358871   57.976337   19.960321
