100
TIME:    6.216, STEP:  6216
H   96.960037   51.983269   93.455093
H   28.803795   41.700359   70.045326
H   86.612000   21.107731   50.378117
H   82.519943   76.550812   99.441895
H   39.494904   70.997238   97.164825
H   31.626904   94.473839   94.337425
H   27.190105   81.071999   76.552376
H   31.320953   26.365078   37.461559
H    0.826739   88.650253    8.811292
H    4.978930    5.636324   51.099277
H   22.057846   16.356527   40.992874
H   18.592751   35.266422   50.467125
H   47.410995   85.696281    7.368584
H   47.301399   85.916420   30.280468
H   56.105537   14.789062   51.974361
H   51.592285   68.054909   17.058609
H   24.253487   93.111397   39.255348
H   33.993305   92.368652   84.046425
H   42.082333   39.122749   90.845642
H   25.047768   73.807167   39.546776
H   95.410477   37.395115   88.530296
H   58.314316   52.335815   89.928482
H    2.749910   44.067894   54.503677
H   41.502018   11.189669   45.419491
H    7.265021   93.199387   82.446449
H   18.210287   42.899460    5.893019
H   26.065907   84.085648   23.301664
H    8.054185   46.581566   72.242538
H   46.332024   13.056320   63.338409
H   39.341541   36.993950   77.542923
H   60.696144   79.455956   17.588799
H   58.239262   80.769562   23.817772
H    8.203291   13.690325   57.783325
H   40.743080    4.063463    9.881483
H   26.257202   89.031654    3.236379
H   12.984039   72.292458   99.883064
H   75.993782   76.891724   98.261940
H    7.074928   45.198711   61.086140
H   82.693237   45.979851   41.935432
H   77.715240   30.261932   27.096006
H   10.432343   69.467049   88.791969
H   76.363312   65.979187   97.298027
H   64.782196    0.775732   50.461716
H   82.430862   16.978170   88.503380
H   17.464153   86.640488   88.029892
H   97.888329   81.477524    8.414389
H   90.297165   62.885269   85.132652
H   56.571384   59.392761   53.188770
H   46.728394   17.641174   96.514420
H   56.247692   25.343260   48.909630
H   43.074772   69.528778   18.953331
H    7.218805   86.941223   65.994423
H   37.811085   58.051208   41.853436
H   32.743416    5.780652    6.111872
H   45.868065    3.344959   53.219425
H    1.337780    5.995094   81.019485
H   90.319603   10.186650   47.180824
H   63.199371   89.862770   53.445908
H   80.519257    1.409880   34.280052
H   48.826141    5.569699   86.812767
H   51.810902   89.499161   29.747730
H   78.299934   70.084427   14.098722
H   96.064354   83.114174    7.220673
H   69.882309   75.624298   58.378147
H   79.047333   64.383774   74.437920
H   19.487831   33.257195   13.722199
H   88.846848   63.262951   67.170670
H   50.984169   73.036842   63.363346
H   66.708412    3.144209   70.377075
H   56.318039   60.790459   88.644012
H   24.646873   72.464371   87.583504
H   61.428478   45.228119   11.727824
H    1.695873   10.838501    2.367424
H   93.372246   56.007519   33.819298
H   61.867641   37.503048   72.612930
H   72.610146    5.959599   77.670898
H   31.328674   87.789940    0.983189
H   24.019314   44.271645   57.727562
H   59.591053   35.260372   87.033653
H   94.686996   70.404640   85.407280
H   32.509880   93.589035   51.504551
H    7.740924   84.782410   66.972649
H   11.050035   11.072009   21.923584
H   77.799889   44.075951   95.682060
H   49.661858   60.072067   45.180847
H    8.227177   37.377953   73.441071
H   82.307304   51.398949   19.946356
H   55.999382    7.662718   31.127548
H   84.682236   48.074974   77.351936
H   16.760527   53.534359   46.423340
H   78.406975    9.078384   64.732346
H   38.219952   62.981888   51.963829
H   83.911133   14.029401   99.697403
H   48.019337   90.290718   45.934296
H   49.121498   92.937729   58.923008
H    7.337744   50.268219   46.384537
H   69.205528   24.403460   79.701355
H   26.279009   94.026779   54.093880
H   12.597060   63.645031   24.381836
H   25.311075   19.122646   98.932884
