100
TIME:    4.904, STEP:  4904
H   85.685219   72.299568   94.656265
H   65.038704   70.605560   87.318726
H   64.049988   26.717014   65.781990
H   82.299728   30.606369   71.359261
H   51.246368   65.834732   32.736099
H   51.976757   95.895226   64.406670
H   95.952187   92.478683   73.952194
H   34.441566   12.860812   57.925770
H   33.078255   14.793905   91.397362
H   40.826164   86.797539   99.723206
H   44.096893   63.565632   67.370529
H   68.670677   69.502861   43.856606
H   31.132645   65.035713   37.735840
H   12.264279   89.960365   30.436693
H   40.151497   31.981997   15.041000
H    4.344111   82.807205   25.966457
H   29.756721    6.333099   19.818815
H    5.936739   56.204617   29.527567
H   21.649864   84.082123   21.724321
H   60.392250    1.674040   50.219734
H   73.266411   68.009430   24.141632
H   32.531601   50.594116    1.657392
H   20.268562   54.738304   92.040298
H   63.406704   95.494354   42.859535
H   54.188629   97.247055   72.756996
H   24.191122   81.682739   29.268461
H   39.201439   38.623592   97.268471
H   18.756821   85.341858   28.872126
H   17.804192   94.021507   25.357021
H   89.034897   69.465630   73.242622
H    9.057651   61.805775   21.390068
H   75.398811   17.021057   45.276192
H   15.788122    9.682615   39.588005
H   85.306824   24.300293   65.153404
H   58.871292   88.215195   23.347900
H   98.934372   69.530937    4.009276
H   50.156006   24.941143   94.881454
H   61.298695   69.209969   68.502083
H   38.073559   74.567741   69.078278
H    1.291836   53.087784   23.870485
H    0.098610   24.451918   57.881817
H   90.876884   31.951498   33.193195
H   53.481861   92.907776   55.694092
H   66.205338   94.956299   60.222511
H   31.270357   38.404305   75.758934
H   14.819218   56.453114    3.083133
H   80.047165   91.533531   72.540367
H   56.501316   45.879578   72.009666
H    8.380981   26.300564   48.852478
H   28.729275    5.373365   40.671593
H   43.170475   96.193558    5.122872
H   43.457161    8.684458   52.124413
H   10.595029   50.443787   18.051893
H   63.123055   27.190346   48.215904
H   50.331421   88.365974   42.058537
H   99.702225    7.375191   25.683075
H    7.145029   48.043968   22.398781
H   60.893448   13.765230   87.238876
H   77.044304   45.975433   35.000084
H   35.405224    4.724976   24.129158
H   69.048706   50.512371   32.041435
H   24.862852   82.296341   73.464966
H    6.992459   72.642868   97.188446
H   79.788979   68.477325   93.994476
H   26.969896   69.170685   52.257404
H    0.085678   98.480827   36.146080
H   94.110992   17.907146    3.826725
H   41.613029   98.001602    0.642158
H    1.315488   97.416176   52.663292
H   29.741686   94.798828   91.406708
H   66.308403   61.731903    3.319735
H   69.609039   88.770599   15.669291
H   87.241028   75.733620   36.010216
H   22.252804   39.044682   11.774719
H   98.613655   35.631222   73.154388
H   41.592659   21.872721   65.951218
H   12.206007    1.499778   77.778297
H   62.379162   30.059483   85.269356
H   96.678627   39.114132   72.399376
H   59.023773   41.871464   98.437347
H    6.835669   80.015793   73.089607
H    9.277774   76.254410   76.707909
H   28.063532   89.131531   96.975433
H   87.537140   31.805334   15.512845
H   13.544837   42.137291   72.364632
H   38.426640   89.186501   82.331772
H   94.681786   46.792175   57.385193
H   34.892288   12.668695   44.743874
H   57.455673   21.125311   88.082405
H   32.758884    7.510353   99.524719
H   24.714592   38.233654   37.025311
H   41.145237   64.306931   26.969442
H   99.809547   74.666206   98.238388
H   21.217712   10.696095   57.469067
H   71.803627   10.458565   28.774128
H   98.971848    2.078640   14.151169
H   73.345970   49.111095   55.155502
H   24.866308   57.992310   77.560310
H   75.097900   57.989513   34.275757
H   43.816685   52.787403   25.322321
