100
TIME:    4.422, STEP:  4422
H   18.280468   16.501282   95.097549
H   78.350777   44.486145   56.928101
H   55.764854   92.040825   71.437782
H   82.218826   50.464287   97.777473
H   55.563599   27.200304   45.805466
H   59.452847   96.417412   16.671377
H   21.213718   59.933514   36.259167
H   72.325813   71.160370    2.179865
H   44.926735   61.136124   21.737452
H   53.998497   79.876732   80.850952
H   88.931366   44.171192   13.800415
H   87.064873   45.342552   78.166451
H   61.890152   94.182533   85.629883
H   36.129021   91.446022   93.755600
H   34.289772   75.036621   38.210789
H   23.725594   24.964897   65.976501
H   68.516182   74.450882   75.940453
H   95.630989   79.657646   46.237255
H   14.142517   63.863930   96.331451
H   73.379692   11.909990   17.402903
H    1.868974   15.992901   37.223137
H   86.321793   49.954254   42.704117
H   26.703957   58.658379    5.830821
H    8.189827   89.716614   78.657211
H   71.428131   35.473038   69.197304
H   26.388350   95.928864   74.592995
H   80.765251   58.661572   87.707314
H   59.425434   62.843719   12.938266
H    7.322930   50.290249   48.141457
H   70.552444   81.395012   34.924446
H   90.088509   18.585094   59.524376
H   44.964916   30.336807   89.897377
H   81.837379   44.947411   96.165634
H   64.941559   68.472839   85.459831
H   70.852158   24.650963   93.998062
H   57.034443   31.779072    5.525731
H    3.926735   42.593246   56.901600
H   81.222176   78.028297   34.489620
H   58.420437   85.070305   15.787649
H   46.690178   98.209984   85.948303
H   33.038803    7.914790   46.526104
H   34.196976   10.319045   10.550886
H   49.330112   90.017365   20.879862
H   96.984909   86.877716   13.094831
H   73.079185   57.419975   34.513569
H   21.037823   47.259693    1.123734
H   76.281540   65.321251   67.914238
H   56.475574   40.915131   42.186211
H   94.291245   66.218597   68.080658
H   18.620190   98.038002   74.383156
H   43.207249   42.728218    0.041666
H   20.033266   53.411327   83.765869
H    0.596922   47.648987   46.046780
H   74.287254   35.056236   26.946445
H   88.708435   46.121922   37.958271
H   99.099136    7.882208   42.091492
H   76.586746   61.951775   76.556404
H   96.784561   59.284386   99.653671
H   39.030090   25.609592   72.004646
H   67.211151   67.678741   37.838387
H   38.644226   72.927391   69.621010
H   41.969200   86.782730   95.271759
H   74.270821    5.533412   30.240654
H   46.690742   65.851685    7.080540
H    7.838384    7.665828    7.370441
H   29.694527   22.441963    7.646711
H   32.783646    1.243786   80.556076
H   74.907921   70.436050   77.599770
H   77.294754   32.049606   82.892639
H   19.976435   70.557617   92.421661
H   81.613609   94.526672    9.102051
H    9.353453    4.767300   80.380424
H   18.668821   99.577675   48.369850
H   32.864254   69.547783   40.413353
H   75.372688   34.943554   36.616055
H   30.196497   90.981407   98.385605
H   68.444748   43.277027   69.254158
H   39.733929   61.578091   58.651825
H   73.562691   40.529919   67.023064
H   82.661896   68.123619   39.961906
H   97.404587   75.029282   44.281109
H   73.113808   73.106583   17.012621
H   97.574883   81.070740   51.073490
H   54.375702   90.558907   59.534630
H   37.015152   72.287025   19.088974
H   49.521259   71.483650   48.860367
H   62.490105   81.837494   34.401642
H   27.134195   51.258156   49.756126
H   47.453232   47.961998   92.024544
H   75.374924   27.342400   82.292572
H    4.989118   12.207520   26.846354
H    5.480118   28.057693   17.785929
H   68.912300   60.200409   60.964581
H   74.631393   81.460251   24.971766
H   80.136543   53.634544   17.699734
H   59.160660   21.111412   39.047020
H   11.605031   21.449932   82.875504
H   23.097494   53.888367   85.275429
H   98.059387   55.911800   74.648613
H   13.879164   65.154732   71.755569
