100
TIME:    5.760, STEP:  5760
H   27.796785   93.800896   93.872574
H   41.397346   16.988997   41.292088
H   78.770325   88.301819   55.732304
H   82.443405   95.337433   24.437286
H   43.579254   34.446823    9.528479
H   38.699718   94.967857   49.178814
H   51.087734   50.281261   40.892582
H   67.161652   86.915207   79.330101
H   12.036140   32.492966   37.515366
H   17.435503   99.088432   33.245029
H   64.473862   98.008865   84.916954
H   35.998207   12.409504   82.926231
H   76.509384   13.271713   52.679131
H   69.880135   87.321938   95.577873
H   50.561531   55.520950   73.895538
H   69.926636    7.938376   54.910858
H   60.922188   62.948551   97.743866
H   24.241659   14.556580   99.855019
H   34.981686   19.991709   66.819641
H   37.332130   83.492714    8.500147
H   22.470146   82.791199    0.908457
H   14.597153   51.730469   28.761047
H    8.838706   47.776512   67.549942
H   83.871178    5.734591   79.286026
H   23.573318   29.362984   79.078773
H   20.288992   56.380600   48.772781
H   65.388702    3.039638   14.252943
H   46.529392   25.297020   57.169914
H   36.416862   71.684296   84.894318
H   21.857079   48.279839   41.291702
H   42.747963   38.565907   53.666069
H   29.447025   93.370514   66.032005
H   76.084465   47.053017   16.703245
H   21.475407   45.853050   29.090803
H   37.594070   23.507978   75.471344
H   73.344635   36.577003    1.317076
H   32.258270   93.590942   62.330791
H   25.921558   53.544842   28.908833
H    1.939376   55.915886   86.125740
H   20.666162   72.951988   91.219200
H   41.596054   53.820755   78.048805
H   14.792708   64.190979   74.016533
H   60.855091   98.040955   17.525223
H   11.548996    9.324362   43.918030
H   57.017590    4.633185   49.009380
H    3.773511   72.780014    6.561820
H   86.734665   38.086929   80.756065
H   56.547031   54.696106   24.974051
H   33.400330   55.405762   14.704719
H   46.682339   18.402235   80.801926
H   43.106083   13.552568   14.146752
H   85.058113   29.254154   95.927773
H   28.351673   55.407166   68.338524
H   43.302193   13.221372   85.989830
H   82.174950   63.384846   49.340336
H    0.769810    6.474762   96.542801
H   61.409393   23.344627    3.811318
H   97.154449   32.927101   65.191025
H   44.555199   82.142967   69.285789
H   78.917770   70.521713   99.782494
H   23.045956   10.705849   65.299797
H   94.484261   74.328812   34.732613
H   65.108177   14.230791   38.489960
H   38.568451   73.140289   70.758026
H   60.948967    0.802041   31.973192
H   47.499992   55.926384   86.759483
H   25.433189   47.499584   45.155533
H   82.483070   46.958225   41.563908
H   43.980495   35.909462   98.974487
H   47.081284   37.853386   89.604218
H   39.127373    3.490219   93.052498
H   99.029312   60.361786   78.342667
H   31.429104   33.392883   14.060326
H    3.411543   84.868370   60.913780
H   39.883816   36.852474   38.045547
H   61.831490   76.735527    8.355089
H   89.925591   27.307226   92.916603
H    2.595606   74.089012   32.543053
H   37.725513   36.599789   81.947350
H   17.049202   95.244728   24.691906
H   23.586237   88.871506   24.250528
H   73.515152   81.825256    5.116620
H   82.207878    3.446659   78.497208
H   46.428177    5.054485   37.329838
H   71.864861   88.593422   89.385071
H   18.723331   20.627731   41.775177
H   51.852104   84.553856   98.202454
H   48.665642   44.152828   35.855515
H   75.219345   73.464745   81.081429
H   57.078045   72.295090   30.124006
H   59.745598   84.454742   55.102459
H    4.480569   28.686037   43.276756
H   54.680542    0.346524   64.434219
H    3.949887   62.625683   15.186885
H   57.004921   33.784039   48.444248
H   69.673965   68.275543   69.937393
H    5.400949   98.235481    5.926286
H   27.159197   71.461960   63.247139
H   34.319824   61.679394   62.577820
H   96.987671   30.824276   42.861927
