100
TIME:    1.060, STEP:  1060
H   45.638588   24.813820   98.175552
H   71.784401   62.218281   44.864681
H   97.976715   50.164440   10.893730
H   81.654526   88.977379   82.061516
H   85.676727   57.721199   36.963585
H   11.579185    0.059991   83.721123
H   97.416512   32.913975   73.346153
H   36.572388   80.305161   10.867767
H   27.571175   84.378647   33.363541
H   45.872414   31.603493   49.199837
H    1.656414    8.893910   37.644997
H   15.382092   76.823097   17.477060
H   75.834991   97.575737   19.773790
H    2.596972    1.809059   37.906864
H   93.394081   75.341034   99.818161
H   58.904053   19.021107   45.051254
H   38.844109   52.096481   69.865791
H   23.795914   43.152954   62.798141
H   61.770187   22.821169   19.208025
H   63.957458   83.304550   88.502403
H    1.374722   50.691635   28.474373
H   63.987537   45.499016   28.998211
H   71.591499   86.001305    2.021364
H   20.556076   49.394779   28.349625
H   91.672844    2.108513   44.383377
H   41.798603   96.025375   89.819229
H   70.674622   98.413284   21.000723
H   43.101067    5.916542    1.810251
H   34.219803   45.263248    7.066113
H   41.637859   64.604904   67.655571
H   57.799137   17.099279   25.532410
H   32.686100   23.226311    1.134585
H   45.023045   90.928001   93.290123
H   22.889549   76.580086   27.094645
H   54.423866   78.792213   89.275574
H   64.717804   67.753006   16.997023
H   81.466515   65.716652   91.989265
H   20.179916   39.553158   97.243477
H    3.065773   57.880119   40.531197
H   63.352295   12.949287   21.432310
H   62.800751   92.553444   67.317673
H   36.354424   59.432976   52.600666
H   20.371237   69.856445   78.037575
H   11.671427   30.535360   84.375008
H   64.707268   90.068985   46.816048
H   64.412224   83.134651   87.476173
H   47.272694   82.921982   36.680855
H   56.296024    6.297121   34.164700
H   96.016838   44.659546    2.189178
H   48.121380   46.883274    9.527809
H   43.463749   67.307365   64.593338
H   56.646690   65.379883    4.473860
H   30.867800   28.154968   41.306808
H   52.143551   89.909523   78.591751
H   56.374222   51.430653    9.400934
H   94.892532   11.417936   56.541901
H   63.449562   58.961159   56.802284
H   47.128601   76.783653   86.251785
H   73.876228   83.555786   30.106239
H   89.069885    9.262266   33.460655
H   26.566576   29.276680   31.749771
H   61.289673   18.079025   47.394142
H   46.132439   34.869942   60.837990
H   15.827147   47.560623   98.359322
H   74.396660   76.184258   94.276772
H   36.227730   89.577400    8.861053
H    2.522372   85.009308   18.239220
H    7.144324   78.159409   16.876730
H    9.731426   73.621490   93.750496
H   51.858391    1.457316   99.501068
H   88.371895   23.278814   49.434391
H   86.565201   16.346382   34.229584
H   37.878281   65.872688   34.568806
H    6.860305   82.301147   40.209648
H   13.279260   30.151953   81.752861
H   50.719738   75.509544   24.605442
H   63.197102   34.672966    9.790394
H   81.781052   81.410469   72.980911
H   12.360231   50.397312   29.507835
H   47.541183   51.225204   29.601135
H   31.625301   40.247845   43.341946
H   20.855423   51.150162   98.140457
H   84.866051   24.948999   30.859531
H   23.088003    2.867165   66.610756
H    0.715642   82.580627   44.997292
H   26.895123   47.991100   15.393057
H   37.949730   26.282295   74.087952
H   73.019073   20.428143   84.723091
H   77.680367   35.152519   19.527626
H   72.619217   65.666611   62.107494
H   67.402107   30.669123   55.846996
H   56.716221   75.228325   53.718834
H   53.295341   59.390198    0.919021
H   49.681374   77.530296   98.289452
H   38.266148   54.782051   40.443474
H   81.473221   53.872551   12.698708
H   78.464676   28.511488   76.227417
H   10.757110   25.262939   39.076294
H   58.216057   41.419537   56.259197
H    5.071030   51.477230   95.592476
