100
TIME:    8.865, STEP:  8865
H   17.818420    9.058847   91.029861
H   55.646408   85.245392   37.071499
H   32.152111   11.687697   19.278652
H   82.964569   67.412407   54.242851
H   15.761137   83.326096   25.338478
H   90.546021   91.603981   56.677261
H   88.355415   59.946480   83.707710
H   23.114777   55.536221   94.238457
H   35.709251   33.959152   42.067226
H   32.625496   43.673267   54.821327
H   75.654327   22.944202   85.827614
H   17.488014   68.047264   61.908592
H   78.457977   25.401108   44.127869
H   16.139872   77.751472   31.870609
H   88.280281   78.167336   24.583191
H   45.081284   36.363731   97.168030
H   11.236497   68.320442   80.404274
H   90.635849   63.468056   92.222244
H   83.340958   50.252277   30.404293
H   53.675121   17.555880   19.902979
H   38.215050   73.679047   16.633326
H   12.276528   55.852402   64.341644
H   67.381676   22.528196   78.711975
H   95.371353   42.879364   48.682598
H   12.521615   83.121552    2.009015
H    5.807280   64.763290   56.646786
H   97.639778   73.970718   75.863998
H   84.538605   70.227936   59.804443
H    3.931534   53.394009   38.118034
H   40.915901   71.430618   88.130981
H   64.951378   16.997719    8.008492
H   25.498676    7.582994   78.586632
H   94.795059   19.876694   96.426163
H   52.669708   61.298340   98.283897
H   60.330376   88.465126   64.407944
H   43.256504   79.776993   91.556435
H   30.068176   79.879158    6.992671
H   97.586220   96.717216   48.018898
H   70.879051   88.264915   85.228271
H   28.209867   82.271935   35.514160
H   29.391077   60.359589   51.200039
H   53.120010   76.367264   32.535244
H   87.579376   16.666473   41.800770
H   13.284740   61.447060   47.506481
H   87.682663   82.132240   14.713347
H   63.692741   31.997112   19.176355
H   10.999789    6.946692   10.563429
H   56.728695   86.676620   17.093098
H   24.163567   98.251747   90.845245
H   11.860287   65.665245   63.693226
H   42.892879   13.784885   46.879196
H   35.968533   41.132809   92.103798
H   92.752220   73.411011   88.007370
H   71.395844   62.568390   23.003838
H   34.950844   35.490944   75.743332
H    4.637106    3.208604   90.841263
H   58.253136   33.750816   99.122612
H   65.949646   39.697655   85.212425
H   89.441536   13.346356   30.919207
H   74.019463    9.180791   11.468895
H   18.911509   66.305908   23.211216
H   84.281731   45.427902   94.241188
H   75.906265    2.350928   25.570801
H   51.784229   90.054428   86.454468
H   84.190552   52.811794   21.127657
H   56.757912    1.568263   70.352348
H   76.312790   54.846470   95.063644
H   67.999542   24.536560   90.000870
H   98.731171   12.803963    4.234451
H   10.068542   93.911087   83.041092
H   40.523907   92.224754   55.812965
H   43.255844   57.247459    5.847366
H   28.977173   79.810997   34.451344
H   35.055454   88.353981   76.425606
H   89.507584   41.368465   73.451935
H   35.231873   75.737053   99.427963
H   71.913895   58.513065   47.965752
H   48.468380   71.065468    4.029296
H   86.622429   27.479420   16.589708
H   64.777397   26.101110   57.193535
H   84.362480   20.994852    9.832177
H    6.519135    1.963290   45.357803
H   78.605598   55.372349   74.201363
H   60.045853   70.756447   53.735806
H   20.679230   94.362106   88.391403
H   47.265064   34.679588   57.395737
H   59.228153   58.794441   46.260643
H   98.602623   95.688210    3.661623
H   39.659672    0.583785   55.686531
H   82.553970   44.547066   41.118881
H   86.814995   52.113682   20.674706
H   34.219128   62.212082    2.443343
H   53.717060   93.508873    4.548640
H    4.033634   51.002186   24.551260
H    3.318965   55.657749   19.794363
H   26.134277   45.662354    9.560209
H   58.940239   76.422981   27.354465
H   21.165812   25.100975    0.914762
H   86.404991   75.083412    2.499921
H   89.850922   51.142269   43.746868
