100
TIME:    2.331, STEP:  2331
H   59.686188    8.256768   97.011917
H   36.429283   31.127459   25.038687
H   19.822599   41.605103   95.973595
H   81.867859   36.613792   12.392609
H   74.292496   59.597446    2.502476
H   91.871712   98.682747    9.592213
H   30.803139   18.737358   72.740089
H   36.674294   90.263336   94.168877
H   96.327507   62.177246   53.359737
H   11.140814   49.853065   98.967522
H   83.431091   60.035343   15.216105
H   66.874863   40.531525   27.005541
H   94.987862   20.678841   93.446739
H   39.663795   97.891060   34.630413
H    8.853329   61.812866   38.723297
H    7.799619    7.851331   39.548599
H   36.658524   36.149757   85.585251
H   50.957100   81.344017   18.733692
H   81.570290   76.142548   86.168747
H   29.717491   56.310978   75.037971
H   25.951782   24.158810   93.976608
H   85.855591   47.178421   20.772064
H   54.621819   75.664345   65.657623
H    2.466351   64.638397   33.953743
H   46.213493    1.305143   53.760338
H   35.970730   58.150547   70.686546
H   61.075050   45.580860   46.222515
H   35.859039   65.242912   43.822697
H   61.856140   60.578468   46.984184
H   90.374779   33.147964   68.696434
H    7.797604   31.079287   24.960121
H   12.937843   88.109505   83.471733
H   34.549877   97.935722    7.791844
H   76.591316   60.100510   73.549896
H   22.829762   82.714325   66.668709
H   75.225754   67.597649   12.626790
H    3.372636   19.169905   92.139099
H   67.644783   16.290150   86.933769
H   46.681648   30.626890   18.420969
H   43.639126   93.962547   21.432028
H   75.942390   36.165676   97.261887
H   22.124207   16.473564   12.313921
H   31.319105   77.478256   69.843010
H   30.508535   51.839249    8.647170
H   54.457912   39.920963   55.581154
H   48.014454    7.377033   92.634956
H   59.941647   51.605682   47.832443
H   56.363903   19.383169   12.806953
H   33.167152   39.395664   51.490784
H   74.774406   66.227592   20.631771
H   43.366779   44.600777   77.994537
H   18.414888   47.440060   21.035732
H   57.233833   35.524658   67.490196
H   22.713276   69.177422   34.676239
H   55.190239   62.853977   20.185438
H   96.482834   10.082180   13.274063
H   44.026417   22.287254   77.684898
H   52.485687   56.753510   53.514847
H   74.117241   37.259762   32.530792
H    5.197707    6.955565   97.311409
H    6.741588   70.168159   32.652630
H   16.181114    6.246735   89.883682
H   32.342686   48.196831   73.642502
H    3.104448   54.474556   63.857494
H   24.842777   74.671600   12.642316
H   58.148201   26.392006   84.012260
H    0.547550   28.952066   79.602676
H   19.347847   50.849854   77.637878
H   73.080040   82.295540   14.035460
H   77.608948   65.387276   96.824707
H   48.013145   36.798820   34.188938
H   81.765259   74.163681   27.286219
H   55.006271    3.007008    1.977359
H   78.892418    1.868549   64.670296
H   74.557396   31.960436   78.103378
H   80.765205   56.969002   39.082836
H   78.595093   24.510996   32.274952
H   41.494946   98.301826   43.173023
H   73.291397   46.671848   43.685799
H   85.208656   82.003342   20.103340
H   56.498005   53.396923   19.307178
H   16.220390   59.450760   91.860329
H   65.285263   46.164337   51.916080
H   10.521312   11.628267   50.518738
H   38.829605    3.077902   21.788010
H   97.640503   94.675591    3.654882
H   22.836950   33.870239   34.694473
H   93.479660   18.668839   71.505653
H    4.056662   64.385780    9.129238
H   60.247646   13.370598    7.546391
H   19.416779   99.299591   82.688187
H   50.760113   70.815727   77.937721
H   34.844898   97.478683   99.247360
H   72.528389   54.626087   83.985649
H   16.289368   40.933182   69.650719
H   86.452606    3.683226   47.049850
H   77.578659    1.451981    3.131376
H   15.423772   36.084747   18.738605
H   97.670158   46.898319   49.792908
H   84.004288   18.829521   73.177032
