100
TIME:    8.281, STEP:  8281
H   57.311760   62.613945   91.564529
H   71.775558   53.600498    0.248075
H   22.113718   69.672302   26.133541
H   82.866547   91.472466   86.252998
H   20.994200   36.515919   41.172623
H   99.599731   92.236671   98.840858
H   18.963341   20.510263   38.038151
H   69.016022    5.014343   47.860390
H   50.065086   90.108200   78.828308
H   48.576424   35.287891   31.955357
H   29.976578   99.446808   42.081589
H   39.779213   38.774197    3.478878
H   15.697981   60.747116    2.164455
H   45.055275   79.551521   87.427620
H   81.187019   30.333084   52.666626
H   68.562119   87.442345   45.645782
H   58.198280   29.694637   27.240454
H   78.148682   91.885658   12.466457
H   74.242691   25.751118   99.638443
H   69.409256   29.957949   80.141609
H   72.870445   31.817661   32.483936
H   56.287876   55.077133   14.074600
H   75.178917   27.275602   95.420349
H   49.634026   35.893036   92.054657
H   33.407417   29.435547   97.696999
H    8.561810   81.979599   11.602987
H   47.999435   98.244644   64.279526
H   33.815193   42.968784   40.498474
H   91.232918    0.409430   65.724724
H   18.523563   85.884476   41.703979
H   41.965298   64.627983   54.212715
H   88.624779   23.717167   32.650398
H   53.660152   62.604942   43.814835
H   27.994419   14.818361   22.885607
H   74.864433   32.682091   28.874853
H   92.491180   34.033226   93.392128
H   74.054070    1.265998   60.975735
H   21.723766    7.404083    6.809347
H   95.527245    0.989848   41.821632
H   83.215546   36.943764   89.566467
H   69.303894   40.322906   37.441250
H    2.336246   74.077103    2.720947
H   82.553497   13.163073   99.619453
H   50.573376   51.640358   90.407623
H   38.340401    5.168446   64.738823
H   71.231377   20.860424   16.803766
H    6.433897   75.186897    4.955209
H   56.693050   80.661606   80.958916
H    7.094262   46.617149   14.140932
H   99.601807   56.775555    4.524381
H   42.932980   70.166344   40.721603
H    7.584980   95.323288   30.440887
H   80.641991   70.024780   21.924578
H   84.922943   72.095062   97.234818
H   81.449135   84.312271   70.779831
H    3.909734    3.822915   10.722015
H   21.231834   50.601768   43.579521
H    9.435727   94.848656    0.254437
H   43.379894   88.670052   75.754349
H   12.559020   64.294586   28.079247
H   82.072220   93.467041   68.743111
H    5.009071   50.863693   20.665081
H   36.257519   42.202789   65.617432
H   11.680805   86.873154    2.307933
H   61.012123   99.453735   66.742401
H   92.634132   30.600182   35.821705
H   23.168554   34.658298   66.868820
H    8.340464   91.136101   62.082291
H   69.627411   54.766487   40.863304
H   98.207542   64.575638   84.279739
H   59.072430   31.961651   62.817116
H   91.347305   76.638084   63.038784
H   67.054443    8.700071   49.426502
H   47.909763   25.315723   11.124968
H   61.375137   40.508541   29.172522
H   21.424074   38.307236   38.723122
H   18.874279    9.058212   37.606560
H   21.034567    9.249676   71.771484
H   58.615593   29.194813   10.072227
H   93.417778   57.914268    7.505684
H   72.929497   14.953103   74.926987
H   62.694725   98.174042   94.215843
H   41.666260   45.605747   18.583347
H   19.869339   20.782312    7.076472
H   49.114655   30.894444   45.002876
H   60.707508   13.227984   16.841171
H   20.224123    1.256011   18.413353
H   89.210289   42.420425    9.716911
H   27.539711   33.098854   60.462898
H   34.186970   68.575089   20.243299
H   62.915333   20.581638    8.341697
H   91.009041   18.289803   91.314247
H   16.281391   75.989586   59.387024
H   47.592010   15.571523   85.173927
H   13.417248    7.967408    6.375626
H   77.898224   68.724365   39.724632
H    5.295818   42.908211   60.940834
H   22.293070   96.204231   12.639585
H   14.225131   72.561562   51.417576
H   53.574978   66.126968    0.004460
