200
TIME:    0.795, STEP:   795
H   26.525057   60.633068   24.829733
H   32.910828   40.980526   12.428343
H    6.505371   93.430412   72.684929
H   36.550507   83.460732   29.986584
H    9.317566   97.795639   45.678936
H   71.563477   37.751423   49.122211
H   11.400184   54.910339   60.393818
H   15.325866   12.851489    5.372435
H    9.967167   79.185799   34.180199
H   91.324158   67.124359   74.181053
H   31.538244    6.449941   10.500191
H   33.072800   56.836590   39.186977
H   24.795963    5.427693   38.544945
H   78.171753   55.548512   69.009727
H   92.826614   76.217010   41.613026
H   13.123286    3.098958   42.350483
H   10.315373   33.711823   88.485481
H   23.383570    9.848032   33.639595
H   83.491264    9.609206   50.653942
H   91.821960   72.082909   15.956171
H   64.745651    4.463240    0.413724
H   77.673302   70.028282   49.187172
H   78.385529   58.506157   35.819290
H   20.363745   93.119186   89.845779
H   27.369576   35.025234   25.606464
H   18.201670   86.967140   88.626205
H    9.643711   69.933006   71.396698
H    7.247733   93.024368    2.191632
H   34.444122   39.660225   35.088528
H   67.969582   35.632339   79.427521
H   12.636895   74.636360   16.873362
H   21.833565   76.514145    7.267642
H   13.713226   20.927673   79.958290
H   78.058098   64.183426   47.991112
H   21.354179   66.867966   29.996975
H   14.932010   37.267704   85.840652
H    2.193871   62.450127   90.121498
H    5.462576   59.111755   90.213966
H   32.529594   26.527155   56.768307
H   84.760216   37.406193   42.016693
H   80.669449   79.297279   19.945988
H   40.963974   31.468826   23.373922
H   66.708878   75.032410   70.936691
H   36.044846   90.189537   38.597389
H   47.740200   93.228172   64.392220
H   33.249599   99.394714   48.723892
H   90.432907   99.021225    8.347140
H   76.604126   65.542137   27.695572
H    8.544204    7.690894   61.566475
H   42.256348   20.306101   82.232826
H   65.005646   63.471390    5.873807
H   99.922493   45.250591   75.474022
H   67.146324   78.550674   15.180820
H   14.146386   93.895813   89.921967
H   53.706924   64.041908   72.824097
H   98.191216   58.676632   96.821899
H    3.846599   18.845680   43.701145
H   73.472214   71.481346   95.285744
H   16.470108   85.198746   20.549610
H   30.266968   92.872719   56.734489
H   48.622051    4.548206   26.020807
H   99.911583   17.739637   53.321014
H   86.737419   36.703255   66.160782
H   37.573601   65.944153   16.059132
H   80.270073   84.352921   40.624866
H   16.968243   38.123009   42.839340
H   65.443947   11.454962   97.301643
H   94.233437   92.711754   98.259598
H   36.263687   13.353276   54.955078
H   42.042175   51.303276   50.952953
H   58.221691   86.191322   88.126846
H   16.542345    9.233809   40.879845
H   95.108536   35.258053   80.911354
H   25.946705   96.765472   76.730324
H   85.903000    9.855737   41.516640
H   67.342041   99.482697   59.250782
H   93.081772   50.611530   64.295158
H    5.998937   16.076187   28.989342
H   15.751755   54.417778   22.640285
H   59.912285   87.571663   67.941132
H   66.923584   20.721985   92.893906
H   51.040695   58.608826   70.699791
H    8.834391   19.754185   74.041122
H    6.575571   80.007866   11.940077
H   19.144558    5.192761   42.053837
H   40.302914   66.355759   16.229496
H   60.729694    3.940606    3.043723
H   70.716087   97.888016   32.375561
H   82.673447   73.408043   79.169495
H   20.664303   10.924445   48.759624
H   17.978022   39.683922   78.285881
H   80.189499   93.404922   10.477818
H   73.625420   10.602724   79.923134
H   35.140686   74.494263   84.343964
H   39.187576   49.418762   91.054901
H   46.288216   40.117954    2.966851
H   86.834206   95.082283   22.231644
H   92.175735   37.150883   53.952209
H   24.441994   64.218376   54.848087
H   76.854431    6.945443   27.385904
H   34.628384   95.771545   95.073982
H   11.209496   85.053215   62.803192
H   34.684029   16.886799   38.258194
H   48.544014   68.964188   12.202577
H   24.603027   20.179127   43.081253
H    9.395500   99.600243   17.906326
H   91.411339   36.899597   53.572441
H   61.480675   55.583561   97.280861
H   86.901062   33.083981   25.969669
H   22.195311   20.322180    8.253576
H   54.496616   91.243896    1.186334
H    8.278586   77.301697   96.832993
H   47.454624   86.715050   81.863342
H   61.344139    7.432247   60.642498
H   45.329369    5.079316    7.312574
H   91.388840   89.562218    3.971995
H    9.756077   16.257683   90.650131
H   37.955296   54.314156   22.884605
H   39.939297   78.550667   56.110382
H   85.429123   57.751827   70.047058
H   46.347115   25.447521   69.333450
H   94.342522   14.332485   64.513496
H   45.616829   98.414932   40.493767
H   95.900536   47.347332   93.560753
H   60.309395   95.210938   74.457382
H   68.055519   77.536934   14.815338
H   81.591240   51.781326   49.620667
H   63.288895   91.922844   39.689960
H   99.297668   32.393967   72.242371
H   94.645790   21.518778   75.956833
H   71.012711   65.369110   24.621021
H   60.397171   91.555984   22.415249
H   90.625465    9.596577    1.504107
H   73.706627   27.232552   56.537632
H   31.843456   91.334824   30.913612
H   47.576088    0.914559   75.505142
H   69.811562   87.978783   82.967560
H   95.952309   46.892021   74.429108
H   60.819992   52.095131   71.418823
H   43.748581   82.472481   80.036118
H   78.094124   46.747501   32.837997
H   31.688459   57.873981   59.184837
H   37.164219   66.975655   80.664345
H   32.281792    6.437593   87.321358
H   66.389549   51.360512   67.216812
H   66.275665   71.537262    3.265215
H   57.857628   94.347298   43.307991
H   27.497833   52.759476   65.640770
H   80.022308   41.620068   92.427147
H   27.153807   94.734100   69.227623
H   56.658489   70.735535   47.154343
H   57.150196   91.752426   30.759884
H    1.958518   11.086216   83.982170
H   24.580950   13.882066   62.237305
H   35.620384   68.536774   70.793457
H   79.977814   44.905056   71.136711
H   65.120743   77.528282   87.327438
H   53.936710   27.755135   22.726652
H   86.980331   99.643036   82.022110
H   57.457352   34.298706   99.539673
H   59.407627   61.861664   68.659302
H   17.545551   20.180143   30.735912
H   89.109352   10.372011   37.001282
H   31.646900   36.483887   47.454235
H   53.640121   40.920475   15.277812
H   21.475836   46.780090   59.267937
H   65.342987   88.590218   58.105278
H   24.117043   56.183895   70.962692
H    1.614606   26.365334   35.546413
H   51.800503    6.271448   84.153503
H   68.762268   12.234056   35.929497
H   26.989689   44.832500   59.162426
H   48.396343   53.605659   74.807877
H   64.391754   61.263515   87.115822
H   45.642426   90.861511   73.135345
H   18.040916   50.660915   23.825161
H   29.716240   70.259315   10.123806
H    6.648890    9.730148   71.976913
H   61.407761    8.477301   62.644081
H   59.899914   60.408546   94.214249
H   71.285103    5.078299   28.815489
H   30.422134   30.783535   89.877357
H   40.080406   89.581383   17.062630
H   63.567486   26.247307   97.608147
H   92.700127   64.262306   76.110306
H   10.879071   40.906921   86.731911
H   50.677399   95.018204   11.562634
H   63.757576   90.733467   44.946873
H   90.545357   63.648361   72.886414
H   59.706059   55.254246   72.715042
H   74.332603   12.662243   75.338142
H   43.103146    0.011826   17.555201
H   16.428249   30.727674   70.520828
H   25.407707   85.680824   44.498222
H   65.848663   29.465654   20.000822
H   76.683121   11.745307   21.962603
H   13.150426    0.692915   22.199385
H   12.779824   86.375793   31.314571
H    4.512259   13.164829   53.195518
H    2.219124   16.189379   90.038109
