100
TIME:    8.056, STEP:  8056
H   72.527824   83.247643   91.770523
H   77.989700   41.407391   86.061966
H   18.246187   53.484634   28.774551
H   82.828781    0.742252   98.585152
H   23.010363   18.481174   47.273468
H    3.089063   92.480431   76.559212
H   30.755619    5.316516   20.442860
H   86.700577   85.548302   68.519463
H   55.596016   11.741269   92.990372
H   54.721901   32.057224   23.144836
H   50.905533   90.393387   63.753838
H   48.367432   27.496044   19.494087
H   30.045448   74.366318   24.524160
H   56.196098   80.245033   70.306114
H   78.454170   50.431198   63.486443
H   77.608673    7.121754   64.322540
H   76.291389   14.813278    6.757817
H   73.338730    2.834156   20.265697
H   70.737366   16.311459   87.783508
H   75.472336   34.735653   64.822548
H   86.222267   54.217754   38.589931
H   34.716908   54.778442   33.235443
H   78.182991   29.104654    1.857780
H   70.540131   33.201385    8.764756
H   41.454903   47.279747   96.035316
H    9.622677   88.612595   32.776680
H   67.402023    7.597667   59.814724
H   52.799225   32.466541   33.060387
H   86.340569   79.995468   76.360863
H    9.896418   91.453171   23.817257
H   33.109287   44.452568   72.014000
H   74.418083   29.933025   53.479790
H   37.810658   79.067268   23.545057
H   18.486954   35.438301   32.363922
H   80.464027   49.717766   15.184883
H   72.932083   16.409513   94.099373
H   52.473721    9.506567   43.246548
H   31.023521   11.521811   90.931313
H    5.024313    5.891649   63.626060
H    4.408657   58.008331   71.864746
H   84.681320   32.603294   32.140347
H   21.298271   73.194763   91.233604
H   80.617157   11.813385   83.366554
H   64.939606   47.862091   68.407501
H   57.856659   14.045074   45.483917
H   74.135887   16.569748   15.889669
H    4.675012   62.950874    2.794361
H   56.679317   78.344177   67.037178
H    0.517712   65.251106   23.116337
H   94.877686   53.350910   20.256554
H   42.948429   91.888374   38.349243
H   96.649704   16.201475   45.210724
H   75.976234   68.720154   34.992104
H   90.134583   75.765182   87.305923
H   99.363716   64.595245   68.867523
H    3.629497    4.059593   18.381546
H    6.968219   57.094002   22.180214
H   26.189188   16.097479    6.050223
H   25.633850   79.163445   93.026917
H   27.406113   46.999729   34.478783
H   67.879257    3.931038   86.286903
H   12.994759   52.957962   30.845459
H   20.981991   57.556183   81.046356
H   96.230522   85.647491    8.417132
H   52.080582   17.424650   45.789413
H    6.455933   41.785637   22.517948
H   41.220886   26.879757   56.006084
H   23.882896   78.268364   51.325989
H   58.413635   70.933556   54.975586
H   93.637917   53.275082   84.756958
H   66.218163   47.272125   65.515633
H    9.875768   84.108788   46.547276
H   81.724625   19.829737   55.196041
H   52.862194   39.555439   24.493097
H   50.536438   40.177235   12.112911
H   16.104288   23.886448   53.861938
H   98.439171   28.533195   33.615433
H   10.464742   23.961056   59.343845
H   47.826675   29.855709    7.561251
H    4.451944   70.170891   26.889503
H   68.524666   12.625375   61.479034
H   45.811829   96.714920   13.039558
H   27.434092   41.842930   97.155167
H    4.389775    1.528235   27.626232
H   60.070084   44.968960   66.814171
H   65.885910    4.963347    1.216167
H    5.196846   17.615654    7.684511
H   85.591667   60.425987   12.049789
H   22.869663   45.626701   62.303108
H   54.080807   77.831070   12.200308
H   53.707417    8.432895    3.589911
H   74.361320    1.367980   87.026146
H    1.858733   69.239861   41.987427
H   25.847422    1.921090   70.002495
H   17.307953   28.122169    1.205615
H   59.314163   77.609558   51.346107
H   23.154867   29.995975   73.880669
H   22.727373   85.070274   17.156855
H   24.943596   71.589958   70.263710
H   39.600025   71.901657   21.679844
