100
TIME:    8.582, STEP:  8582
H   36.956047   35.010643   91.288956
H   63.462418   69.911331   19.227158
H   27.287615   91.327805   22.600456
H   82.917068   79.071648   69.755318
H   18.297022   60.642399   33.011047
H   94.933350   91.910576   28.649872
H    3.188272   40.836121   61.576740
H   45.358017   31.053972   20.222641
H   42.665932   61.168365   59.882114
H   40.355141   39.609806   43.740730
H    1.978297   11.557879   13.088186
H   28.290085   53.861858   82.053169
H   96.503891   42.529396   72.251022
H   30.151472   78.623756   10.333401
H   84.842964    3.446277   38.192116
H   56.459839   61.115868   20.659908
H   33.993721   49.602543   54.641670
H   84.583328   77.238914    2.032984
H   78.932037   38.379284   15.495578
H   61.298969   23.565786    0.635102
H   55.008675    1.851363   24.314390
H   85.145042   55.476715   88.441727
H   71.160133   24.828737   86.808670
H   21.666014   39.493866   69.701035
H   22.642670    5.563972   99.919960
H    7.142155   73.106125   83.277954
H   22.043127   85.733597   70.250290
H    8.417883   57.018452   50.448982
H   97.777794   27.717951   51.495934
H   30.064362   78.434799   65.632965
H   53.812672   91.620430   30.398552
H    7.630059   15.401688    4.785335
H   74.862076   40.582008   70.931290
H   40.712509   87.233673   10.205770
H   67.373421    9.892143   47.189022
H   18.656092   57.610855   92.445992
H    2.924868   90.242928   84.693443
H    9.283072    1.895424   28.049210
H   82.823296   94.431358   12.652916
H   54.864342    8.764853   13.248078
H   48.732315   50.650032   44.532681
H   76.969635   75.257477   18.087540
H   85.143890   14.968655   21.360394
H   31.354404   56.694839   19.837376
H   12.231216   93.294884   90.495781
H   67.345787   26.600395   18.026625
H    8.787232   91.555977    7.845654
H   56.711422   83.761810   99.583107
H   15.891983   21.689209    2.133403
H    5.920012   61.356968   83.479424
H   42.912312   41.107094   43.895294
H   22.214178   67.393890   10.681258
H   86.883736   71.770081    4.442869
H   77.950928   67.185257   10.516574
H   57.483406   10.689961   73.338074
H    4.284630    3.506292    0.475255
H   40.313019   41.916603   72.207039
H   87.022644   66.423225   92.501610
H   67.120567    1.387929   52.646362
H   92.695839   87.429001   19.518089
H    1.059284   79.467896   45.275249
H   94.325951   48.062027    7.045620
H   56.693607   21.662783   44.976959
H   32.350002   88.512817   94.136612
H   72.958817   75.414520   94.772842
H   74.143135   15.636542   53.619175
H   99.018082   45.063503   81.400742
H   87.548203    8.350728   76.471832
H   84.627808   33.138542   21.984207
H    4.320795   79.695450   83.641327
H   49.512318   11.480655   59.207100
H   66.559448   66.643944   85.102951
H   47.429001   93.810722   41.708141
H   41.284512    6.265567   93.240822
H   75.874908   40.951756   51.994617
H   28.540766   57.599693   18.469980
H   46.211746   83.006592   42.945801
H   35.174686   89.569115   88.397766
H   73.050209   28.310680   13.431356
H   78.656212   41.517632   81.574303
H   78.822182   18.067087   92.917358
H   85.282455    0.126149   69.032997
H   60.706108   50.639561   47.249905
H   40.577080   46.539772   79.583916
H   34.458725   12.065748   15.824844
H   53.779125   24.284233   37.743439
H   40.327229   79.370842   32.766151
H   94.051201   18.333637    6.595910
H   33.786869   16.340452   58.001106
H    7.574309   56.191193   31.003305
H   75.233482   36.833599   14.698264
H   13.279993   40.927490   97.050774
H   35.576145   85.019218   82.663818
H   76.682114   33.832874    5.469751
H    8.212349   81.006516   13.291952
H    2.759597   56.837952   24.177681
H   81.403709   60.182091   43.630211
H   21.712069   11.098012    6.596483
H   99.886528   73.861351   26.204876
H   72.271378   58.403385   71.009506
