200
TIME:    0.419, STEP:   419
H   14.971527   61.880932   18.400366
H   29.559719   35.491360   97.163864
H   14.385952   76.972954   54.164909
H   23.876341   79.065956   39.818890
H   13.309654   88.265976   51.084911
H   83.795410   47.956654   60.251148
H    5.952613   55.177124   53.116047
H    6.899917   96.616028   18.718590
H   94.697891   84.822701   43.352715
H    4.560086   72.391533   89.011986
H   18.432806   98.418037   98.618240
H   31.517990   46.800610   21.271240
H   15.567508   92.948509   53.955345
H   95.943054   53.962147   50.891323
H   10.979721   73.322540   42.538166
H   24.082878   18.591110   50.461597
H   92.628082   16.101954    6.741320
H   32.311558   91.772072   40.333595
H   70.981071   23.221510   45.118877
H   90.625732   77.246483   30.531796
H   60.233261   85.693779   17.639675
H   86.044029   55.656334   63.676735
H   89.644989   61.239983   44.841202
H   12.399650   89.691147   91.024796
H   11.026754   19.903131   39.023151
H   18.512918   70.280190    1.044600
H    2.362114   62.388447   56.278900
H   98.618195   77.513565    1.202269
H   18.607727   51.088936   37.290218
H   84.960609   25.559525   92.433990
H   13.127793   58.927616   16.413660
H   28.670998   67.701645   98.010117
H   22.798248   12.837216   75.365578
H   90.502312   63.773209   41.419029
H   39.398426   82.404587   32.857525
H   27.214176   45.840672   81.529068
H   91.402084   70.565544   87.298744
H   24.060946   49.385590    7.119257
H   46.445427   39.990883   48.410488
H   88.366112   38.952396   56.704193
H   80.557571   96.862038    7.465677
H   22.248888   39.353367   34.523495
H   73.478897   83.669922   56.974957
H   36.882492   71.927696   25.150215
H   34.892941   81.756432   50.823494
H   38.540829    9.180055   44.634628
H   83.347336   17.442585    0.103906
H   85.757996   65.547874   41.212662
H   94.002907   21.959362   61.295387
H   55.711761   18.609293   98.139503
H   73.950104   68.230484   20.774803
H   14.295512   38.778912   67.390160
H   57.003731   89.299675   10.269971
H   19.742529   85.961121   84.353912
H   69.622208   72.404030   84.984314
H    3.011002   67.940338   84.509644
H    4.919641   17.422829   47.734470
H   69.364304   62.740566    2.072711
H   24.404083   77.935318   11.455803
H   38.963287   94.984047   63.685234
H   49.839794   11.884068   37.006702
H   93.153038   16.848921   50.438019
H   76.378716   28.914581   78.845963
H   28.463037   65.407715    7.664028
H   74.225822   78.747574   25.249207
H   31.718136   23.515415   36.080795
H   79.488869   19.386274   89.533333
H   96.339027   91.856895   90.815445
H   22.889542    8.272176   59.714172
H   44.206573   44.749840   50.973034
H   58.386639   79.688087   78.069351
H   27.109743   19.116787   43.511833
H   83.174942   28.757687   93.501869
H   13.696909    5.030156   65.783546
H   81.324631    3.769173   59.196144
H   57.838196   12.757092   61.707783
H   94.671005   36.613941   69.613640
H   19.925295    9.229431   41.846642
H   12.891441   37.668304   30.973942
H   65.578911   89.668648   85.772675
H   50.965275   27.076767   98.476303
H   34.507217   65.371384   82.323570
H   10.301348   15.629781   85.042404
H   18.836887   67.712822   99.685638
H   32.533993    1.216692   52.709446
H   29.710260   79.511398   24.056614
H   43.877796    3.157105    2.181693
H   73.842918   11.882199   18.193678
H   71.164413   72.492943   77.815491
H   22.547573   94.070419   52.896221
H   33.739193   36.438042   79.958305
H   82.808578   90.105972    2.273597
H   55.762985   14.843309   90.631813
H   52.001190   88.002747   74.019684
H   29.660604   54.504883   75.394928
H   61.859261   31.711369   20.645451
H   81.733742    8.087946    6.038300
H    1.973873   31.220221   50.288357
H   32.961891   67.984917   53.515598
H   70.316772    0.836118   27.294107
H   17.852507   85.375549   77.368660
H   97.228539   79.364677   64.877228
H   26.889898   30.628361   33.004257
H   30.477180   68.269974   97.270638
H   25.101456   25.120380   30.890915
H   94.509521   18.009090   35.510387
H   74.137695   32.319397   55.426178
H   63.696709   41.147068   11.819987
H   77.345581   37.830166    7.788151
H   10.116851   25.564642    6.413336
H   49.549625   94.511292    0.921790
H   93.181435   67.846619   92.550095
H   53.985111   82.351830   90.041870
H   62.617821   15.538328   70.338043
H   57.876854   89.422348   20.496420
H    6.733398    0.560705   87.009544
H   25.215389   10.963209   86.266830
H   39.862949   35.807045   30.400475
H   25.660263   64.434029   74.692902
H   75.506454   50.247433   56.020161
H   42.422798   22.948925   81.654312
H   10.565598   23.239651   53.453472
H   36.551888   14.273150   29.339184
H    1.440011   60.877331   10.026517
H   71.560249    4.520115   86.892990
H   54.280254   67.249924   22.075237
H   90.937309   50.025711   64.141785
H   71.513321   88.973869   36.514362
H   94.670532   46.004288   80.811035
H   76.421242   23.300928   69.551132
H   55.834671   78.794403   10.251942
H   74.829361   87.826736   13.548245
H   91.853249   91.303558   98.706673
H   92.143456   17.592445   51.910496
H   13.268879   98.133530   48.191505
H   57.590553    1.397120   81.044510
H   69.189064   87.020653   64.249603
H   92.745155   58.631981   80.370087
H   50.991989   46.836891   71.507751
H   43.544907    0.504866   90.483749
H   59.479435   57.804722   20.692123
H   48.997894   46.449574   50.419670
H   49.251286   60.055649   93.346657
H   49.510918   20.048166   81.090645
H   48.715778   63.830544   54.921772
H   52.498722   65.059845   21.273228
H   48.964806   95.993904   46.000221
H   37.764740   66.755630   67.797997
H   69.970551   57.318768   96.165001
H   15.167886   90.629059   83.298363
H   69.910866   64.349915   49.992874
H   41.322407    2.156858   42.542873
H   84.491264   25.145481   97.180840
H   14.641738    5.251424   71.529144
H   20.710564   58.606277   63.991879
H   68.815887   43.972744   59.567989
H   61.184948   66.251610   82.875290
H   48.590977   33.787910   13.917738
H    4.189330    1.059866   95.966629
H   61.672836   49.640259   85.110352
H   55.714237   77.137238   78.656555
H   35.199825   22.128675   33.993267
H   72.924416   26.765642   37.157623
H   17.845097   25.438141   63.540203
H   57.240280   28.162142   11.583346
H   14.997701   58.743805   61.323326
H   71.817535   94.671761   54.119286
H   23.788582   39.076687   55.414600
H   96.505203   27.588097   36.434261
H   34.641659    9.108904   88.387634
H   75.945374    7.762544   35.961052
H   39.979225   58.798534   58.007793
H   41.131481   69.762833   85.387466
H   69.021759   70.256302   78.392250
H   63.118256   93.690002   90.814850
H    6.433890   48.627739   23.458477
H   33.578880   58.512852   94.395889
H    3.316431    9.371567   67.169052
H   71.023872   17.218393   67.041283
H   77.785629   56.375221   88.910110
H   78.149788   91.603928   37.557446
H   22.838135   30.324551   76.150856
H   57.394169   89.980026    9.612805
H   55.378918   25.551659   83.775505
H   87.837761   80.570595   77.659378
H    3.007734   37.734192   84.850075
H   37.584869    1.458436    3.231342
H   81.821480   74.806709   31.789812
H    1.434668   61.971634   68.589172
H   52.868626   57.299595   67.964554
H   56.371361   25.102154   78.023201
H   46.185513   89.793686   22.344416
H    8.076508   21.782499   61.906612
H   31.976204   70.674904   36.920677
H   78.751862   46.260071   21.230757
H   75.765152   10.822677   27.113985
H   10.651113   90.440285    9.508466
H   23.707344   93.848633   41.918545
H    9.526304   12.112751   70.011559
H    6.140791   28.928347   95.261925
