100
TIME:    7.954, STEP:  7954
H   79.425774   92.601585   91.863907
H   80.806778   35.879848   79.630936
H   16.492907   46.146225   29.971809
H   82.811661    4.944912    4.176126
H   23.924356   10.305425   50.039185
H    4.670945   92.590935   66.458199
H   36.101154   98.428894   12.466328
H   94.717575   76.723534   77.884300
H   58.103371   21.548428   99.410507
H   57.507851   30.592653   19.150734
H   60.393326   86.289169   73.579346
H   52.260757   22.383282   26.754288
H   36.549629   80.540543   34.660480
H   61.246605   80.559425   62.544216
H   77.215279   59.542343   68.392120
H   81.709778   16.043213   72.789337
H   84.493599    8.066883   97.472351
H   71.158218    7.797407   23.801441
H   69.148285   12.032147   82.409271
H   78.220932   36.901379   57.877907
H   92.275093   64.372437   41.357983
H   24.938066   54.643036   41.921692
H   79.544838   29.933825    4.776217
H   80.017029   31.981173   16.340313
H   45.103096   55.369118   95.282021
H   10.103603   91.619553   42.375755
H   76.197220   11.837865   57.790630
H   61.405319   27.705526   29.688719
H   84.122704   70.741135   81.182579
H    5.985388   93.977646   15.708820
H   29.094843   35.306404   80.083916
H   67.977715   32.750881   62.922447
H   30.625628   86.530190   14.356091
H   14.176986   44.786018   36.661133
H   83.002510   57.440605    8.978947
H   64.065292    8.420140   94.419991
H   42.690990   13.242308   35.209316
H   35.239113   13.388514   83.732979
H    9.329957    8.113794   73.510735
H   14.015903   67.557312   63.839951
H   91.652420   29.103735   29.737272
H   29.894249   72.794769   86.025902
H   79.739349   11.201527   75.998573
H   71.452866   46.149925   58.434544
H   66.704231   18.069233   36.755646
H   75.452599   14.624640   15.475279
H    3.877651   57.403877    1.814756
H   56.673092   77.293610   60.725994
H   97.535774   73.699226   27.185146
H   92.736084   51.798405   27.388351
H   42.955433    1.735759   37.273773
H   91.692581   25.666311   51.906342
H   73.861092   68.128723   40.915749
H   92.497192   77.428970   82.804825
H    7.485266   55.656136   68.000610
H    3.502456    4.166887   21.853867
H    0.502001   60.037148   12.479123
H   33.784103   25.730406    8.677615
H   17.589226   74.853783    0.857193
H   34.136749   39.159382   37.379906
H   61.445110    8.674351   94.240089
H   16.614937   53.907364   35.460854
H   14.057193   64.516388   88.040802
H   89.226738   85.091858   11.186545
H   48.031616   25.571218   36.290726
H   12.721596   46.856377   16.486912
H   49.404419   23.353352   51.081646
H   30.928703   72.434990   46.449799
H   53.329666   78.262627   61.373154
H   91.566353   48.152203   84.973297
H   69.457024   54.212250   66.738960
H   18.275108   87.495506   39.071125
H   88.375107   24.875185   57.811565
H   55.107296   46.010593   30.553316
H   45.622894   40.027042    4.379371
H   13.692838   17.349194   60.724869
H   89.175499   37.361855   31.806162
H    5.673133   30.630215   53.710468
H   42.935699   30.155315    6.422941
H    9.453938   75.727226   35.676918
H   66.527809   11.570138   55.382629
H   38.158249   96.053452   21.572891
H   20.982439   40.137119   87.441696
H   97.372231   92.799927   36.942043
H   65.036545   51.349407   76.701958
H   68.232956    1.216712   94.132980
H   98.384453   25.031883    2.820686
H   83.951225   68.588074   13.107361
H   20.752575   51.305992   63.137337
H   63.099346   82.027115    8.554255
H   49.533161    2.925401    1.435767
H   66.814354   93.696548   85.082207
H   95.320343   66.179985   34.099609
H   15.989595   95.732872   63.124783
H   19.071739   37.258995   98.861786
H   50.889389   81.637512   56.614510
H   31.250853   24.142757   79.746727
H   22.924257   80.022881   19.204683
H   29.802666   71.149498   78.806770
H   33.264713   74.519516   31.506153
