100
TIME:    9.651, STEP:  9651
H   64.664215   36.978737   90.310257
H   33.938339   27.837475   86.631523
H   45.662685   68.235542   10.051756
H   83.096497   35.030205   11.157815
H    8.718008   46.327194    4.028347
H   78.360718   90.752449   34.516487
H   47.160511   13.019206   45.173946
H   61.336731   23.536312   22.070633
H   16.387871   58.387665   92.591164
H   11.154383   54.959064   85.596413
H    2.542462   54.569962   10.114096
H   87.489006    7.445299    5.960711
H   28.337524   77.825966   66.017029
H   77.221893   75.328804   91.684959
H   97.827034    7.957924   86.783714
H   13.476894   67.617172   31.923885
H   48.031044   20.309898   51.956955
H    7.448020   25.221077   64.973221
H   95.586227   83.224655   71.815247
H   32.500759    0.864066   73.417564
H   91.572205   95.430061   95.298294
H   87.631119   56.895828   97.406509
H   56.887444   16.138708   56.224335
H   22.340466   52.282196   90.307007
H   84.409775   20.787651    7.810955
H    2.099625   41.592026   82.680077
H   29.862103   41.296505   91.455429
H   18.218576    6.915761   85.783134
H   21.023022   24.706091    0.964825
H   71.055336   51.977310   50.615181
H   95.882378   87.479614   45.822693
H   75.127396   85.864761    5.822647
H   50.161629   62.369247   67.235252
H   85.879456   89.266197   65.170097
H   40.769127   28.953835   12.226901
H   11.582441   41.341648   89.085793
H    5.455849   51.094978   68.926407
H   65.096077   82.337120    3.486358
H   37.700527   71.138329    9.059040
H   54.176517    8.688016   97.354935
H   75.674133   87.331955   69.717857
H   86.879921   79.450729   72.657707
H   94.343658   21.382881   98.575218
H   63.102711   74.640968   24.357075
H   19.498175   51.118351   81.973129
H   53.552315   46.988873   22.369600
H   17.145191   49.695438   18.111361
H   56.776669   94.772171   65.726364
H   47.136940   33.154369   59.493614
H   28.357595   77.634666    8.734505
H   45.020115   38.066124   51.814972
H   74.167542   68.198761   40.508156
H    9.053688   77.968506   42.357719
H   53.193413   49.741440   57.687996
H   72.367805    4.371847   82.423660
H    5.616068    2.381808   64.083969
H    8.084295   11.070955   73.877831
H    7.422854   65.469231   64.967552
H   51.433987   46.560417   70.578835
H   22.152813   69.597031   89.113197
H   68.496918   29.755434   61.934406
H   56.385063   38.111923   58.679832
H   29.272251   48.724762   71.676315
H    5.756316   94.336075   65.118195
H   15.386920   90.033333   94.323875
H    8.473677   62.493797   16.827295
H   13.250557   82.021515   33.013195
H   13.705319   69.488350   27.576218
H   37.906952   56.327026   54.940029
H   26.031769   33.388920   81.374008
H   15.561577   38.743313   46.386147
H   78.530296   31.149803   63.458828
H   77.728989   40.931927   14.296421
H   17.754963   38.608387   29.723421
H   27.368616   42.525829   33.046803
H   53.815659   26.110950   46.539017
H   43.299751   90.481369   61.908089
H   85.393562   19.673714   47.439507
H   24.314360   25.170689   25.362886
H   26.231033   83.283241   89.479042
H   99.750023   29.126383   56.810555
H   65.497948    7.065736   79.600700
H   28.320093   68.517128   49.056072
H   14.122907   38.016556   81.947502
H   82.408264   45.191429   12.197986
H   29.173008   63.553719   11.978044
H   11.723391    1.645544   83.740044
H   11.242725   32.794777   95.515518
H   55.970707   56.819862   49.258064
H   13.060519   12.206841   69.214554
H   18.982016   94.556671   37.273582
H   92.375168   21.326834   17.417353
H    4.101297   17.092207   65.331230
H   77.813759   98.521774   80.901360
H   89.729858   85.251778   37.854408
H   91.054596   14.625027   68.962173
H   96.551689   21.529289   82.150024
H   19.648645   63.990131   85.131615
H   48.961571   78.477547   36.665394
H   38.671829   30.975201   68.029312
