100
TIME:    9.242, STEP:  9242
H   92.323639   74.486214   90.684708
H   45.234268    5.673438   60.843967
H   38.632374   38.809959   14.853306
H   83.027847   51.880486   33.576767
H   12.382944   13.544096   15.117548
H   84.701416   91.195549   94.011963
H   68.595360   85.402031   13.189617
H   93.483322   88.152512   59.624916
H   26.441872   97.711227   18.335855
H   22.327055   49.086430   69.582405
H   40.586700   38.112854   49.511681
H    3.097977   86.944435   35.072884
H   54.418015    2.583141    6.663339
H   97.473434   76.589455   60.561520
H   92.859322   44.491829    6.453956
H   29.923080    3.389762   65.874084
H   80.920296   93.257805   14.724073
H   98.700943   45.123131   79.152420
H   89.214325   66.068573   50.265018
H   43.518970    9.549749   45.570915
H   15.843325   36.147186    6.400468
H   48.419888   56.352875   32.236588
H   62.348183   19.463518   67.925919
H   60.343693   47.389374   20.682577
H   99.038315   53.224442    4.791946
H    4.029018   53.649338   21.168291
H   65.132042   58.299686   83.342331
H   52.727951   87.825027   72.265465
H   12.129479   87.598747   20.297539
H   55.372093   62.099960   18.101048
H   79.787239   50.803295   78.181473
H   49.302784   97.166931   43.685829
H   21.350769   92.294098   30.389303
H   68.598557   26.748444   82.401070
H   50.947945   59.920906   87.343414
H   76.028854    9.305375   90.371407
H   66.226166   66.073006   36.698689
H   82.002525   89.819893   74.622780
H   54.965824   80.050255   48.693741
H   92.700455   46.978569   65.177139
H    3.626722   73.296295   60.081997
H   21.348602   77.845673   51.780445
H   90.823822   18.928669   69.031059
H   89.214516   67.776039   84.367622
H   54.980133   67.261864   46.975857
H   58.828949   39.187817   20.707975
H   13.947259   27.450266   14.183949
H   56.751705   90.559601   40.419743
H   35.182602   67.026833   75.808044
H   19.773314   71.406303   37.332104
H   42.866993   77.387871   50.854218
H   54.290447    6.149639   67.356270
H    0.570102   75.596985   66.113113
H   62.663895   56.416023   39.639473
H    4.932708   68.530396   78.947510
H    5.106659    2.812037   78.007294
H   82.154343   22.872719   34.978645
H   37.877136    4.093952   75.502098
H   19.175682   29.276644    1.976622
H   49.141346   38.159328    0.746127
H   42.694691   48.774593   93.819084
H   70.901268   41.918839   77.184837
H    1.499519   76.625389   99.718781
H   77.672119   92.108093   76.220657
H   99.152969   22.700001   56.235996
H   33.598091   82.826469   92.643532
H   46.065811   67.879761   13.265682
H   41.957687   46.097664    8.023651
H   17.521235   85.715164   80.591003
H   17.725204   12.847057   82.241486
H   28.550362   66.574074   51.291451
H   12.211307   44.729881   33.480930
H    4.396183   61.161625   24.784161
H   26.757381   64.492348   54.025124
H    7.667828   41.923588    2.036385
H   44.145470   99.897820   74.059158
H    6.153344   25.881649   54.653107
H   66.178001   46.415733   24.850769
H    4.702121   26.372051   20.797709
H   46.288658    5.563344   24.714561
H   91.743019   24.895090   32.365166
H   34.808441    4.410646   13.818544
H    2.450148   61.677158   10.103841
H   85.983727    3.016895   19.303837
H    2.322800   70.776596   51.845367
H   38.587322   48.528885   83.575653
H   84.407127   31.383476   64.237404
H    4.665458   65.521767   99.753052
H   47.483158   79.592705   52.603157
H   49.222340   29.035278   54.594261
H    2.243450   72.470322   28.636253
H   62.113308   90.566467    9.625657
H   77.883575    4.819586   33.702629
H   40.468559   73.874374   49.971416
H   96.800735   21.887325   28.456285
H   57.272903   30.774839   90.087433
H   29.015549   98.058372    5.671959
H   20.438112   43.754192   93.344566
H   68.445488   76.711388   70.923882
H   13.268387   41.469334    7.428228
