100
TIME:    3.533, STEP:  3533
H   78.400055   98.027313   95.911453
H    2.992802   96.297821    0.860620
H   40.483810   28.081757   81.869316
H   82.069611   87.089958   46.507877
H   63.526291   55.943035   69.910583
H   73.237190   97.380531   28.630579
H   67.804268   99.901680   66.738136
H   42.199463   94.251816   83.805702
H   66.780052   46.609894   77.697838
H   78.293526   67.112007   46.039497
H   71.623978    8.400480   99.433403
H   20.995262    0.781895   41.445839
H   18.528610   47.956039   73.976982
H   80.147652   94.186165   26.102833
H   23.475742   54.445389   80.944832
H   59.470322    2.719894   39.771828
H   40.004372   15.651902   95.011276
H   76.639244   22.891045   77.060730
H    0.296429   26.566790   49.493389
H   97.335594   30.789167   56.875694
H   54.623489    4.495380   61.348602
H    1.092499   48.774094   18.410660
H   38.573387   65.888557   31.268028
H   90.787498   79.054474   44.682636
H    3.224438    5.973999   62.631813
H   30.457956   22.338381   58.022057
H   57.425106   95.613785   70.072731
H   34.437786   21.348190   83.554100
H   87.992157   69.633408   90.166023
H   36.463440    3.397786   64.251923
H   55.102482   38.866482   29.859230
H   88.833076   54.896355   72.196556
H   19.216890    9.991467   16.077497
H   27.379482   49.944344   22.911041
H   92.949646   91.852287   39.862915
H   79.738441   62.021992    8.491586
H   18.660015   75.149399   86.851982
H   17.967339   94.292809   71.754601
H   95.942413    4.440435    1.938665
H   30.424652   81.435883   16.002954
H   93.796722   77.408539   25.581648
H   14.095268   70.422714   68.784607
H   41.672634   84.686295   56.665043
H   53.752884   71.983276   26.172281
H   50.193562   92.497955   58.439266
H   32.507084   30.303364   97.513680
H   69.336227   16.974312   59.378143
H   56.428097   31.758802   87.179970
H   68.300583   39.846153    3.540202
H   99.975029   84.513634   36.561497
H   43.275074   28.555481   90.668213
H   76.830109   35.903069   42.127575
H   82.161827   42.494263   97.677773
H   94.879021   49.564072   87.718597
H   59.490646   68.208191   30.396467
H   97.986801    8.818090   72.355148
H   20.229174   87.603310   92.005058
H   62.981682   43.239609   22.553730
H   68.916039   88.046173   40.252895
H   25.877518   99.345169   63.123665
H   82.564796   14.271949   38.935055
H   73.521538   95.057419   35.497620
H   13.915242   66.197563   91.202049
H   85.644463   61.013145   31.219570
H   72.554726   78.669594   24.582251
H   84.307472   66.636940   55.082336
H    4.108925   70.505524   37.636211
H   36.317406   19.593367   35.100430
H   32.986511   95.927490   38.649296
H    1.965470   25.841845   94.293640
H    9.843098   55.014641   19.767582
H   82.654892   34.271866   15.291041
H   76.633118   43.548893   71.163811
H   52.438641   25.803780   93.235710
H   32.512074   33.675220   69.223305
H    9.177981   34.004570   58.202381
H   87.728523   20.329327   53.532246
H   97.967087   19.705915    9.553303
H   30.932959   43.141193   57.102287
H   26.260475   16.538517   16.549973
H   80.014175   65.832169   91.148315
H    6.408774   67.300735   91.349854
H   41.331837   66.229462   66.400696
H   93.215088   14.485283   40.731590
H   80.301270   27.893162    5.267736
H   69.982178   38.827316   87.125351
H    3.115813   46.475044   92.010300
H   12.826445   22.433640   59.000717
H   29.004196   97.460915   99.295418
H   53.974506   63.920593   50.512505
H   68.607513   64.201729    8.072305
H   39.700150   61.206314    0.845600
H   11.926541   33.524712   92.216759
H   88.705482   27.534821   65.029274
H   95.505760   33.265110   97.272362
H   85.732880   56.216743   84.964760
H   82.169617   70.432259   34.003822
H   19.835096   46.319061   99.505180
H   40.409355   52.079670   49.111717
H   58.657848   87.971169   57.395409
