100
TIME:    3.176, STEP:  3176
H    2.542773   30.765862   96.238297
H   12.923899   76.943253   78.341141
H   34.347328    2.398673   86.058357
H   82.009689    1.798068   66.077332
H   66.723907   27.327908   79.590591
H   78.771736   97.767296   93.275627
H   86.516045   75.796989   38.820274
H   70.258957   63.365185   16.583683
H   75.555794   80.933884    0.168329
H   88.049797   61.986015   32.058777
H    4.831238   94.035965   33.821331
H   34.621902   82.887253   66.857903
H   41.236855   69.554932    9.460777
H   97.824425   95.286537   98.934120
H   19.132812   86.334396   98.104103
H   73.824188   33.944611   69.405617
H   68.712105   92.038849   62.512157
H   69.012901   40.251869   89.437195
H   94.734734   11.589198   30.686281
H    6.953705   38.369427   32.569450
H   75.808380   40.036827   71.038757
H   66.866562   48.300171   48.812531
H   43.339851   68.792015   41.481979
H   23.956726   74.772827   71.197060
H   15.992423   34.286797   59.995277
H   32.096180   32.975643   91.484871
H   88.208878   10.453761   62.990742
H   64.559166    4.684631   71.755058
H   80.229630   37.243240    7.041570
H   22.775074   12.234130   35.871033
H   41.050945    6.854031   58.103935
H   66.291786   64.759056    5.245825
H   94.070282   36.110542   83.916115
H   12.294471   82.661354   37.950455
H    1.823630   18.839050   18.125114
H   48.695309   33.976116    9.722489
H   84.418556   88.223129   58.721676
H   32.721588    0.824543   46.562321
H   11.011518   12.217943   36.533890
H   64.048721   14.856511   87.915443
H   18.194662   65.157364   17.170881
H   46.180382   54.400314   52.012100
H   38.597584   82.545471   30.879772
H   76.550201   66.002045   91.266441
H   81.160744    6.583906   27.890131
H   37.112850   23.494129   96.064674
H   66.547165   97.558746   55.949013
H   56.409031   28.083178   65.090813
H   57.864990   69.412346   17.781626
H   92.490318   79.082588   61.529598
H   43.302311   63.021240   86.904068
H   59.480183   69.030945   65.564781
H   74.758827   40.424255   18.411766
H    3.147121   55.390053   71.964752
H   87.915115   36.920753   27.360910
H   97.540115    9.193960   84.508270
H   97.597237   97.904320   58.051491
H   89.564934   76.953491   31.750282
H   40.760742   72.962357   67.661064
H   49.434746   71.906677   73.277596
H   60.045296   30.873669   66.768753
H   86.192162   98.380325   51.651848
H   89.679008   90.558281   15.682632
H   61.130898   59.071152   40.913197
H   58.384991    7.181653   91.335838
H    6.238534   84.384529   33.973709
H   32.752571   58.163029   20.399759
H   60.977730   99.175354   18.033766
H   15.192650   21.579216   61.040783
H   94.731750    7.885588   95.045380
H   21.180103   79.304543   24.050591
H   12.091805   46.119934   89.153656
H   99.909805   61.206600   80.315422
H   60.298450   48.396446   14.449425
H   15.299758   33.165890   42.160679
H    0.737707   11.124060   82.224701
H   55.315838   51.272697   47.218723
H   81.194580   43.049976   89.838120
H   13.814456   44.189816   53.117523
H   43.768379   35.981884   47.305923
H   73.030624   62.138836   69.810898
H   79.623459   64.969254   21.202486
H   18.744246   60.270020   32.398106
H   68.652817   83.936005   73.337708
H   97.683884   50.224728   39.874779
H   78.196838   25.713383   62.334286
H   79.272575   72.431847   74.987213
H    7.080812   51.016083   62.713112
H   21.594387   17.337759    2.215941
H   85.537537   78.606766   37.751999
H   53.997620   44.926121    0.533044
H   13.283936   34.358864   94.041924
H   89.042450   22.812422   64.609398
H   54.200954    5.880059   40.959877
H    1.677953   65.243896   89.068596
H   56.246170   70.314583    3.404289
H   10.506654   49.944637   54.535027
H   18.525000   43.279419    5.217648
H   57.416100   50.540783   79.013786
H   36.484257   97.133675   91.785294
