100
TIME:    9.132, STEP:  9132
H   99.762604   84.573799   90.785416
H   48.272293   99.712509   53.907703
H   36.741581   30.896046   16.144653
H   83.009384   56.412346   39.606659
H   13.368624    4.727281   18.099827
H   86.406738   91.314720   83.118713
H   74.360893   77.974815    4.587475
H    2.129105   78.635605   69.724617
H   29.145882    8.287480   25.259951
H   25.331930   47.506992   65.275459
H   50.818634   33.686737   60.107841
H    7.296661   81.430672   42.902931
H   61.432327    9.240990   17.594761
H    2.919942   76.928505   52.190166
H   91.523262   54.317574   11.743675
H   34.346039   13.010943   75.004944
H   89.765816   85.981651    4.710340
H   96.347733   50.475761   82.965897
H   87.500610   61.454006   44.470112
H   46.482304   11.885756   38.081596
H   22.370888   47.098343    9.386307
H   37.874081   56.206848   41.604111
H   63.816841   20.357721   71.073044
H   70.564178   46.073456   28.852095
H    2.972456   61.948273    3.979986
H    4.547874   56.892136   31.519815
H   74.617058   62.872669   81.160324
H   62.009033   82.690598   68.629906
H    9.737454   77.618584   25.497009
H   51.154106   64.822433    9.356655
H   75.458473   40.939785   86.884323
H   42.357288    0.206584   53.869087
H   13.602192    0.342332   20.479635
H   63.950882   36.829315   87.035316
H   53.685524   68.249458   80.651367
H   66.466629    0.689365   90.717171
H   55.675987   70.101326   28.031088
H   86.549492   91.832375   66.859871
H   59.609303   82.447105   59.353683
H    3.061492   57.276802   56.522240
H   11.144217   69.521423   57.490444
H   30.618774   77.414307   46.165134
H   89.877167   18.268612   61.085506
H   96.237221   65.929726   73.612007
H   64.521423   71.600700   37.562176
H   60.248093   37.089733   20.261084
H   13.087255   21.467791   13.127563
H   56.744991   89.426636   33.613560
H   31.967499   76.137550   80.195557
H   17.464582   69.731194   45.023678
H   42.874546   88.007530   49.694397
H   48.944530   16.356834   74.577034
H   98.288918   74.959167   72.501358
H   65.211365   58.211143   34.785347
H   13.691330   58.890518   78.012604
H    4.969654    2.927746   81.751953
H   75.180313   26.046700   24.516760
H   46.068054   14.482363   78.335350
H   10.500107   24.628550   10.421408
H   56.399876   29.704052    3.874779
H   35.755070   53.889721    2.394577
H   74.805382   42.942703   82.161491
H   94.031921   84.131493    7.261810
H   70.119019   91.508881   79.206650
H   94.787277   31.485935   45.992313
H   40.355598   88.294914   86.139473
H   54.891190   64.076355    7.954594
H   49.556107   39.806770    2.765015
H   12.038673   93.619064   87.489502
H   15.491164    7.322174   82.474792
H   32.043674   74.058357   52.610725
H   21.269484   48.382225   25.418072
H   11.568428   66.602776   27.604824
H   29.178570   71.454628   60.561073
H    2.369328   41.761616   93.696121
H   41.544685   92.848259   81.461197
H   96.162918   35.402752   52.701889
H   61.010487   53.607964   18.775558
H   99.427315   26.695156   19.569910
H   51.683250   11.555723   34.191185
H   89.589546   23.757090   25.790611
H   26.554302    3.696564   23.021158
H   95.492729   59.837559   99.627800
H   78.415520   93.603981   29.350300
H    7.678787   77.658310   62.508667
H   41.119289   44.487976   75.936951
H   77.060478   39.381371   58.992195
H    2.896492   74.323647    0.893376
H   45.200443   85.717430   53.502815
H   58.948215   33.561264   50.662453
H   97.741722   66.530228   26.313255
H   53.974422   82.293304    7.530068
H   70.832336    1.518916   25.196161
H   29.837904   67.200790   42.554272
H   98.702438   31.740765   25.928934
H   48.187363   35.118591   95.769043
H   37.746788   91.745659   11.998310
H   20.650438   38.311764   95.553429
H   73.685661   76.236382   80.136986
H    6.435978   44.291676   18.025059
