200
TIME:    0.612, STEP:   612
H   20.901945   61.240406   21.700546
H   31.279936   38.308937    4.999064
H   10.340884   85.420532   63.671196
H   30.382095   81.321785   34.771988
H   11.260524   93.157532   48.310036
H   77.516785   42.718330   54.538689
H    8.748839   55.040184   56.851711
H   11.224938    4.949812   11.868020
H    2.535718   81.929291   38.644482
H   97.766129   69.688072   81.399300
H   25.159800    2.540830    4.717217
H   32.316071   51.952057   30.467203
H   20.304455   99.353767   46.045219
H   86.821083   54.776424   60.191463
H    1.661676   74.808266   42.063293
H   18.457294   10.639019   46.298180
H    1.707220   25.141098   97.370766
H   27.728828    1.050184   36.897579
H   77.402527   16.234257   47.960014
H   91.239754   74.596031   23.050159
H   62.549461   95.328171    8.797625
H   81.747353   63.033424   56.239273
H   83.865532   59.836716   40.210274
H   16.487602   91.450752   90.419609
H   19.415543   27.665274   32.136395
H   18.353155   78.845566   94.670265
H    6.099731   66.261055   64.038834
H    3.047667   85.475227    1.710111
H   26.736515   45.222603   36.160095
H   76.239151   30.729746   85.757797
H   12.875816   66.990883   16.649624
H   25.161358   72.225082    2.761922
H   18.134926   16.990099   77.723007
H   84.114723   63.983772   44.792465
H   30.136496   74.429672   31.389315
H   20.909782   41.440186   83.742195
H   96.941528   66.399918   88.747658
H   14.514504   54.378010   98.441650
H   39.302460   33.079830   52.700539
H   86.515213   38.158733   49.165131
H   80.614998   87.846085   13.871848
H   31.855303   35.306274   28.800522
H   70.003860   79.236305   64.141487
H   36.452530   81.301460   32.052799
H   41.487411   87.644852   57.788292
H   35.824852    4.157265   46.733639
H   86.984344    7.986943    4.335139
H   81.059334   65.544930   34.274368
H    1.466891   14.635315   61.434536
H   48.805126   19.480261   89.974640
H   69.358932   65.787651   13.126111
H    6.917870   42.100811   71.539589
H   62.209686   83.782158   12.790735
H   16.870102   90.033981   87.211983
H   61.452927   68.111771   78.742500
H    0.536879   63.185593   90.829498
H    4.368844   18.153175   45.664173
H   71.472885   67.227188   98.589104
H   20.331591   81.663620   16.123722
H   34.499485   93.900307   60.117432
H   49.214729    8.118586   31.367825
H   96.622185   17.306124   51.917854
H   81.695816   32.912628   72.334686
H   33.139336   65.683067   11.973213
H   77.328323   81.624786   33.141346
H   24.147047   31.013617   39.549942
H   72.279640   15.315223   93.520790
H   95.258232   92.295692   94.636513
H   29.754580   10.880294   57.271339
H   43.095592   48.113705   50.962727
H   58.301971   83.026184   83.231842
H   21.685520   14.043820   42.160839
H   89.300430   32.094311   87.039185
H   19.984671    0.787876   71.402504
H   83.674698    6.893393   50.121292
H   62.716499    5.943378   60.446609
H   93.855255   43.798874   66.883675
H   12.776890   12.743856   35.247017
H   14.358761   46.266811   26.699352
H   62.670437   88.592270   76.619781
H   59.156643   23.814871   95.610870
H   42.993816   61.900318   76.357109
H    9.548362   17.746828   79.395470
H   12.543169   74.023842    5.975804
H   25.661224    3.257586   47.239944
H   35.147522   72.758636   20.038971
H   52.527840    3.559275    2.624171
H   72.237923    4.698923   25.473217
H   77.071976   72.962662   78.510498
H   21.580894    2.721370   50.772915
H   25.648979   38.104145   79.099854
H   81.464211   91.799316    6.484778
H   64.931412   12.666626   85.135071
H   43.346729   81.068871   79.319115
H   34.550865   51.894188   83.433159
H   53.866676   36.026451   11.571032
H   84.351799    1.412416   14.350248
H   96.668419   34.219009   52.115696
H   28.588646   66.051559   54.199562
H   73.672539    3.972018   27.341227
H   26.463530   90.711792   86.456764
H    4.405041   82.284592   63.812630
H   30.890608   23.574846   35.701092
H   39.750877   68.626312    4.935115
H   24.845613   22.584045   37.148190
H    2.150307    8.559862   26.474329
H   83.280281   34.715847   54.527969
H   62.559223   48.557289    4.356987
H   82.250389   35.393959   17.120686
H   16.316698   22.873697    7.357928
H   52.088905   92.834145    1.057580
H    0.931000   72.699890   94.748497
H   50.633026   84.591461   85.843849
H   61.964043   11.377487   65.361084
H   51.436256   97.459106   13.729239
H   98.857002   94.915169   95.716278
H   17.280231   13.680842   88.516769
H   38.883755   45.306705   26.542595
H   32.989815   71.680069   65.154221
H   80.599739   54.099422   63.219818
H   44.437141   24.231449   75.330040
H    2.238090   18.667622   59.130592
H   41.204903    6.133135   35.064724
H   98.596558   53.932411    1.574774
H   65.785210   99.741539   80.509819
H   61.351070   72.530212   18.348776
H   86.139992   50.926865   56.688126
H   67.291740   90.487572   38.144390
H   97.045631   39.018139   76.412758
H   85.775864   22.386154   72.839165
H   63.625526   71.903229   17.627560
H   67.421349   89.740952   18.099659
H   91.223030    0.693492    0.142381
H   82.679871   22.540691   54.285595
H   22.803196   94.643768   39.322800
H   52.450150    1.149423   78.201164
H   69.508591   87.512459   73.857491
H   94.391380   52.605885   77.320595
H   56.036682   49.535934   71.462105
H   43.649452   91.248863   85.121002
H   69.034317   52.129074   26.926575
H   40.112991   52.313698   54.918812
H   43.047020   63.607990   86.836853
H   40.667244   13.061939   84.288857
H   57.787685   57.429703   61.232792
H   59.570274   68.384689   12.029778
H   53.529472   95.148705   44.618305
H   32.494759   59.571434   66.690697
H   75.130096   49.260658   94.246368
H   21.320221   92.736168   76.075882
H   63.108139   67.627640   48.535862
H   49.446777   96.816368   36.494690
H   93.457153   17.928890   90.405991
H   19.743538    9.681486   66.759804
H   28.363743   63.703243   67.483116
H   74.545280   44.451298   65.505920
H   63.205181   72.039902   85.160568
H   51.334930   30.691299   18.439335
H   95.356010    0.332657   88.808937
H   59.509037   41.765472   92.516891
H   57.610046   69.296318   73.524986
H   26.137987   21.128498   32.321274
H   81.232109   18.350826   37.077374
H   24.929533   31.107899   55.283310
H   55.392326   34.710968   13.479708
H   18.322914   52.602856   60.268299
H   68.494164   91.550117   56.165287
H   23.957180   47.857780   63.395405
H   99.127678   26.960455   35.978531
H   43.449257    7.652444   86.214264
H   72.258301   10.057761   35.944855
H   33.311867   51.629799   58.600464
H   44.860519   61.469639   79.956985
H   66.645187   65.640099   82.870041
H   54.147949   92.238144   81.739998
H   12.392621   49.670250   23.643641
H   31.596195   64.541962    2.469244
H    5.026967    9.555626   69.636917
H   66.088142   12.731633   64.783981
H   68.604759   58.445518   91.632713
H   74.626160   98.520134   33.070084
H   26.730986   30.560146   83.196640
H   48.507046   89.775452   13.436752
H   59.582092   25.908733   90.875771
H   90.333603   72.199585   76.864243
H    7.048108   39.362747   85.816017
H   44.305237   98.152626    7.507780
H   72.549316   82.981880   38.543297
H   95.845253   62.832294   70.794937
H   56.378265   56.249722   70.402969
H   65.591125   18.716774   76.644966
H   44.603340   95.038635   19.886122
H   12.363429   26.374039   66.328102
H   28.604609   78.377411   40.810215
H   72.128677   37.639477   20.599434
H   76.236343   11.296261   24.469791
H   11.934005   95.702904   16.022688
H   18.098326   90.012840   36.475548
H    6.952605   12.652781   61.379921
H    4.127829   22.389462   92.580551
