200
TIME:    0.601, STEP:   601
H   20.563944   61.276913   21.512453
H   31.181892   38.148350    4.552492
H   10.571432   84.939064   63.129387
H   30.011301   81.193214   35.059635
H   11.377314   92.878738   48.468189
H   77.874634   43.016888   54.864269
H    8.589469   55.047989   56.638798
H   10.978435    4.474848   12.258463
H    2.089021   82.094200   38.912827
H   98.153351   69.842155   81.833183
H   24.776396    2.305858    4.369606
H   32.270584   51.658451   29.943081
H   20.034473   98.988701   46.496056
H   87.340988   54.730015   59.661404
H    2.192756   74.723587   42.090359
H   18.777924   11.092247   46.535473
H    1.189789   24.625914   97.904854
H   27.990019    0.521352   37.093414
H   77.036537   16.632494   47.798084
H   91.204758   74.747093   23.476574
H   62.417450   94.779060    9.301574
H   81.992241   62.612968   56.663170
H   84.194931   59.916695   40.474213
H   16.254610   91.350464   90.454102
H   18.937431   27.222872   32.528904
H   18.362261   78.357384   95.033569
H    5.886708   66.040337   63.596558
H    2.795202   85.021454    1.681167
H   26.273216   45.556953   36.224506
H   76.736229   30.435070   86.138306
H   12.890178   66.531319   16.636175
H   25.361389   71.967270    2.491088
H   18.400711   16.753414   77.588646
H   84.478783   63.971771   44.600197
H   30.664394   74.884201   31.473007
H   21.269100   41.690990   83.616058
H   96.625809   66.637337   88.665077
H   15.058611   54.093468   98.936211
H   39.709572   33.473724   52.456028
H   86.620705   38.203968   49.594818
H   80.611725   88.359947   13.506729
H   31.307787   35.536938   29.126711
H   70.201920   79.488998   63.733028
H   36.477036   80.767204   31.659389
H   41.111561   87.309242   57.391335
H   35.979649    4.443538   46.614006
H   86.777054    8.525867    4.093980
H   81.327133   65.545097   34.669815
H    1.041478   15.052739   61.426605
H   49.198769   19.430620   90.439995
H   69.620605   65.926880   13.562040
H    7.338357   41.911480   71.303093
H   61.912975   84.096619   12.647069
H   17.033815   89.801849   87.049088
H   61.918533   68.356407   79.098251
H    0.677891   63.456623   90.469299
H    4.400237   18.111549   45.782169
H   71.352707   66.971474   98.787666
H   20.563702   81.451126   15.857679
H   34.753899   93.962074   60.320778
H   49.250355    8.333199   31.689230
H   96.424461   17.280066   51.833511
H   81.392769   32.684776   72.705795
H   32.872795   65.667374   11.727612
H   77.151497   81.460800   32.691517
H   24.578560   30.586258   39.352219
H   72.690529   15.547260   93.293526
H   95.319832   92.270683   94.418732
H   29.363308   10.731645   57.410568
H   43.158913   47.921982   50.963314
H   58.306797   82.835930   82.937607
H   21.994673   14.332947   42.237839
H   88.951309   31.904140   87.407524
H   19.626297    1.029663   71.082253
H   83.540756    6.715329   50.638512
H   62.438461    6.331728   60.518490
H   93.901749   43.389370   67.039268
H   13.184306   12.543552   35.623161
H   14.275131   45.776741   26.942982
H   62.836227   88.653618   77.141449
H   58.689777   24.000782   95.774185
H   42.510124   62.098167   76.697166
H    9.591278   17.626167   79.717316
H   12.901878   73.664146    5.617299
H   26.052937    3.141266   47.551678
H   34.837635   73.143509   20.267956
H   52.034832    3.536353    2.598952
H   72.329399    5.108333   25.058321
H   76.735275   72.935890   78.470886
H   21.635990    2.228288   50.893932
H   26.110075   38.009186   79.148781
H   81.540833   91.702805    6.244763
H   64.408821   12.790686   85.448357
H   43.839989   81.464066   79.017075
H   34.272156   52.042984   82.975021
H   54.322212   35.780514   12.088220
H   84.202583    1.792885   13.876512
H   96.970795   34.048100   52.011547
H   28.837898   66.161751   54.160580
H   73.481277    3.793287   27.338541
H   25.972746   90.407654   85.938789
H    3.996030   82.118172   63.873306
H   30.662588   23.976860   35.547386
H   39.222328   68.606003    4.498273
H   24.860195   22.728603   36.791557
H    1.714804    9.098419   26.989346
H   82.759201   34.579262   54.579163
H   62.624054   48.134945    4.782336
H   81.970840   35.532810   16.588779
H   15.963340   23.027067    7.304091
H   51.944180   92.929733    1.049841
H    0.489340   72.423279   94.623199
H   50.824078   84.463814   86.083115
H   62.001305   11.614634   65.644745
H   51.803337   97.001053   14.114941
H   99.305908   95.236931   95.220039
H   17.732494   13.525951   88.388535
H   38.939564   44.765274   26.762474
H   32.572086   71.267082   65.697876
H   80.309448   53.879879   62.809475
H   44.322334   24.158352   75.690491
H    2.712713   18.928204   58.807026
H   40.939705    6.597074   34.738388
H   98.758614   54.328236    2.056479
H   66.114357    0.013876   80.873627
H   60.948071   72.229263   18.561165
H   86.413414   50.875504   57.112946
H   67.532349   90.401299   38.051487
H   96.910263   39.416313   76.663437
H   85.242699   22.438292   72.651764
H   63.181488   72.295990   17.207188
H   67.843567   89.631851   17.840252
H   91.258949    0.158335    0.060528
H   83.219246   22.258667   54.150227
H   22.259792   94.842667   39.828270
H   52.743126    1.163540   78.363220
H   69.490379   87.484428   73.309891
H   94.297554   52.949341   77.494400
H   55.749161   49.382103   71.464706
H   43.643494   91.776405   85.426651
H   68.489738   52.452557   26.571243
H   40.619385   51.979473   54.662384
H   43.400631   63.405525   87.207878
H   41.171288   13.460124   84.106575
H   57.270634   57.794518   60.873096
H   59.167233   68.195190   12.556606
H   53.269310   95.196877   44.697067
H   32.795120   59.980896   66.753807
H   74.836029   49.719929   94.355721
H   20.969568   92.616074   76.487526
H   63.495823   67.440826   48.618904
H   48.983730   97.120758   36.839405
H   92.946144   18.340199   90.792122
H   19.452765    9.428992   67.031631
H   27.927551   63.412743   67.284134
H   74.218735   44.424023   65.167458
H   63.090038   71.709999   85.030319
H   51.178539   30.867790   18.181627
H   95.859467    0.374105   89.216888
H   59.632362   42.214294   92.094757
H   57.501995   69.743210   73.817459
H   26.654472   21.185503   32.416569
H   80.758614   18.830427   37.081947
H   24.525757   30.784752   55.753910
H   55.497650   34.337719   13.371625
H   18.133394   52.952858   60.328430
H   68.683578   91.728035   56.048676
H   23.947571   47.357304   62.940540
H   98.978210   26.996227   36.004505
H   42.947269    7.735455   86.338135
H   72.468445    9.926946   35.945778
H   33.691872   52.038380   58.566685
H   44.647984   61.942337   80.266495
H   66.780640   65.903198   82.614830
H   54.659210   92.320892   82.257217
H   12.053004   49.610832   23.633087
H   31.709198   64.198296    2.009132
H    4.929474    9.545135   69.496262
H   66.369453   12.987358   64.912636
H   69.128021   58.327522   91.477539
H   74.826988   98.125946   33.325840
H   26.509113   30.546719   82.795067
H   49.013565   89.787117   13.218803
H   59.342533   25.888382   90.471092
H   90.191353   72.676689   76.909561
H    6.817828   39.269928   85.760963
H   43.922211   98.341034    7.264046
H   73.077782   82.515938   38.158382
H   96.163826   62.783241   70.669220
H   56.178234   56.309559   70.263992
H   65.065681   19.080708   76.723518
H   44.693516   94.739700   20.026232
H   12.119097   26.112345   66.076080
H   28.796772   77.938408   40.588531
H   72.506165   38.130806   20.635416
H   76.209488   11.269269   24.620497
H   11.860887   95.402962   15.651410
H   18.418011   90.231461   36.785770
H    7.099293   12.622002   61.871880
H    4.242557   22.762144   92.733376
