100
TIME:    0.089, STEP:    89
H   11.303931   13.859481   99.064529
H   98.794487    9.570194   83.614624
H   81.293579   80.306953   22.294861
H   81.491547   28.984026   35.284744
H   94.373886   79.891266   63.292122
H   26.636234    1.116786   87.559441
H   48.305302   67.348549   97.412399
H   12.891073   96.302185    0.021667
H   51.440208   77.736359   94.484428
H   72.408379   17.665073   11.173845
H   91.976471   69.823639   31.176861
H   52.445026   28.151604   86.594246
H   37.601120   56.322784   16.283268
H   50.675297    4.802859   64.014275
H   81.585503   62.071350   46.494907
H   97.943970    3.953230   25.652256
H   16.910612   87.882820   81.458046
H    3.046665   90.372452   96.460739
H   46.650169   82.087234   68.050064
H   90.240242    3.666227   22.259775
H   58.995163   47.357666   54.825630
H   70.881691   44.217407   11.677094
H   84.555748   93.898384   29.804668
H   10.772511   37.749180    0.464182
H   26.399595   79.114708   37.215469
H   46.246342   24.962101   80.828636
H   54.404858   38.777615    1.732446
H   25.031052   60.593395   69.718002
H   13.106343   57.166653   52.964966
H    4.406705   88.636917   90.464195
H   19.602755   30.023340    2.369321
H   71.376892   50.051193   91.024925
H   76.627502   61.970512    5.814778
H   81.862541   65.566376   68.001961
H   78.559593   52.192490   30.148026
H   80.293236   91.477226   20.338095
H   88.336235    1.274843   15.477449
H   60.309822   57.325291   28.721972
H   46.719952   78.608101   33.596565
H   54.810001    3.850872   45.036667
H   29.159496   59.232677   44.434994
H   23.622360   15.850883    6.981694
H   12.008328   64.033646    7.902152
H   73.676361   14.263375   89.433487
H   48.934921   28.380417   63.723549
H   76.814766   64.877251   83.667305
H   37.019825   30.541683   28.383734
H   56.244167   96.298309   74.084763
H   67.628838   25.078312   40.924141
H   27.756399   32.104031   77.439713
H   43.533138   61.052475   54.363407
H    9.458592   55.481033   68.220383
H   10.725546   22.524780   97.700569
H   74.623764    5.750161   35.743061
H   33.674377   66.307938    1.161388
H   93.677597   12.438816   89.597031
H    1.894886   86.978752   64.452080
H   19.432753   68.481575   11.262516
H   97.297020   42.529495    4.650474
H   53.149208   34.628769   61.070099
H   65.314926   74.431015    7.457269
H   95.752350   27.116959   91.327225
H   80.270226    1.083966   27.452362
H   49.151253   42.278618   24.724440
H   35.854095   53.736584    3.849213
H   95.878090   37.848713   51.448238
H   80.427788   51.438381   71.359177
H   74.217888   22.627350   70.457314
H   61.339798   43.391350   54.651615
H   32.189774   52.620979    1.543612
H   19.206667   89.348701   61.079990
H   66.627586   48.571800   63.138988
H    1.188317   13.904934   59.467571
H   28.232002   43.747990   97.919075
H   66.461227   28.770334    8.144553
H   27.761908   13.276232   89.941208
H   75.036163   18.830227   92.606750
H   36.161713   44.900700   19.355087
H   65.820473   53.239277   18.680836
H   95.160721    4.106635   13.253656
H   12.623747   30.201742   85.308121
H   48.001881   44.808792   79.338440
H   23.427299    8.742860   38.376587
H   56.293121   19.777439   55.301033
H   47.997353   43.318344   39.124641
H   49.250065   12.318358   47.965260
H   73.098824   96.881889   27.787060
H   57.387894   98.168633   94.812981
H   57.530220   89.217140   27.472858
H   58.466133    5.625166   27.393431
H   27.664827   78.236588   35.341259
H   84.871727    2.200372   35.220703
H   90.994743   30.298208   25.800131
H   55.830719   18.630701   32.819820
H   55.052998   41.757908   18.132454
H    1.272597   92.217094   62.851952
H   55.537834   72.787941   32.070427
H    7.192151   16.995453   54.611168
H    4.472315   37.233936   37.596554
H   44.768719   76.416756   89.113876
