100
TIME:    2.612, STEP:  2612
H   40.683014   82.487663   96.754654
H   28.612770   46.363808   42.764118
H   24.652716   61.821701   92.676338
H   81.915024   25.036303   96.989929
H   71.775604   82.120834   94.883377
H   87.515388   98.378319   37.420918
H   16.075893   37.712662   94.714653
H   14.588249   14.573679   68.369667
H   89.419991   35.160324   35.670750
H    3.462580   53.887810    9.971591
H   57.293152   71.342056   88.148346
H   56.149704   54.616684    7.004387
H   77.112358    3.677645   65.516533
H   25.750145   97.024940   56.015415
H   12.271713   36.712555   25.215376
H   96.500885   83.273956   16.222677
H   14.065753   54.733093   11.169015
H   56.962051   67.679054    8.990921
H   85.948051   87.929489    0.974115
H   22.147522   50.344616   94.169777
H    9.276840   96.183929   86.348755
H   12.795334   47.551453   96.842377
H   50.870064   73.378990   57.618149
H   76.358398   68.008545   13.083343
H   36.163078   79.017700   55.833450
H   34.682270   49.778774   44.348686
H   36.843002   33.898968   51.798695
H   12.149282   78.359047   53.112041
H   67.966141   86.073250   33.700829
H    1.149752   26.193283   91.035454
H   18.853155   56.277912    2.725821
H   30.680336   80.344444   57.458138
H   54.344135   77.376106   33.106544
H   88.464012   34.348465   61.711502
H   15.844007   61.472961   83.780998
H   99.657181   89.670830   11.660981
H   30.324123    8.878305   14.280557
H   56.030823   11.147030    6.763839
H   34.819672   24.505098   91.190323
H   17.172575   67.657387   43.541142
H   56.738506   45.806614    3.882966
H   96.869469   29.085892   25.514887
H   33.739521   79.163330   90.141075
H   12.565500   56.549309   36.121643
H   30.084284   28.835064   79.626686
H   44.389187   12.736683   93.775490
H   62.139103   66.887115   50.531563
H   56.378910   22.276308   30.193657
H   41.380280   16.124065   40.280540
H   80.665733   70.502449    0.978933
H   43.345341   17.471800   80.957352
H   32.070210   21.364731    2.587886
H   63.062988   37.153992   51.169449
H   16.206661   64.593849   47.076324
H   32.819061   87.487030   22.569410
H   96.834427    9.786863    3.708160
H   61.839748   14.179055    4.410328
H   31.561615   30.216740   46.277176
H   96.280464   49.132458   10.958178
H   86.653824   28.554953   89.319099
H   24.467813   57.100323   10.744397
H    6.208950    3.630690   77.170593
H   51.403744   29.034845   54.364914
H   22.400320   56.003128   56.227497
H   35.996593   52.228550   38.811623
H   40.885841   12.422615    0.627155
H   78.002693   38.666233   93.169022
H   99.936897   66.920227   91.071304
H   87.083733   62.104668   96.411629
H   83.303040   79.519600   96.233002
H   39.090401   17.679075   30.817024
H   58.594925   64.837891   47.860596
H   36.684845   89.106682   94.773430
H   72.709526   84.087234   47.969627
H   88.106590   32.361233   99.404770
H   87.406883   74.978264   20.175465
H    4.107223    0.155660   37.244419
H   54.696835   79.928947   58.692425
H   86.767700   45.846462   46.822266
H   71.427925   66.700470   95.895157
H   61.997005   56.303997   36.101368
H   37.305252   61.285904   68.363625
H   83.062149   50.855103   78.680023
H   29.852345   35.673798   24.852448
H   25.146954   85.502228   94.548424
H   91.174622    4.996693   23.168575
H   41.604301   13.439255   48.093597
H   98.003204   96.171539   68.581429
H    9.888695   48.739891    6.830348
H   35.402454    1.808762   17.591007
H   30.916443   14.472703   88.622391
H   71.552628   91.945610   83.293083
H   52.874760    5.898691   20.986740
H   99.686806   71.670952    2.932884
H   11.430309   15.762123   76.108025
H    9.662124   92.586800   32.535919
H   55.273941   17.577633   86.970879
H   16.455267   38.477295   14.242069
H   84.283897   48.109600   26.255470
H    1.455318   11.611891   46.112946
