100
TIME:    3.337, STEP:  3337
H   91.654938   16.001305   96.090897
H    8.445091   85.671783   88.496994
H   37.114761   13.981246   84.169182
H   82.036713   95.164909   57.252048
H   65.281845   40.232769   75.225098
H   76.275764   97.592873    9.219912
H   78.077400   86.667732   51.410683
H   57.604675   77.294418    1.800997
H   71.598106   65.454437   90.034569
H   83.649910   64.297737   38.363808
H   89.855423    0.514175   18.313089
H   28.476555   90.957397   55.397560
H   30.996185   59.814255   93.458549
H   89.852547   94.790291   11.186604
H   21.091389   71.953079   90.365608
H   67.350876   19.863007   56.041359
H   55.765480    2.688251   77.168625
H   72.452232   32.422478   83.855652
H   97.242989   18.343798   39.167919
H    2.616463   34.950977   43.531090
H   66.254410   24.008316   66.668350
H   82.301788   48.513901   35.101883
H   41.190269   67.482613   36.875732
H    8.998093   76.703766   59.239979
H   10.234307   21.518280   61.184303
H   31.357416   28.178514   76.393578
H   74.326263    3.760979   66.184792
H   50.974987   12.199570   77.076195
H   83.730377   51.850571   99.431282
H   28.948059    8.249112   48.670258
H   47.387913   21.291044   45.366127
H   76.457466   60.311058   90.341270
H    5.410681   24.331234   98.420265
H   19.097424   67.906624   31.167679
H   97.821533    6.668496   27.928436
H   62.694317   46.624256    9.168237
H   99.861153   82.327133   71.407890
H   26.067711   97.878685   57.923168
H    4.215375    8.710440   20.932047
H   48.884953   99.783966    0.582036
H    7.191862   70.682404   20.963972
H   31.710625   61.626595   59.576172
H   39.984371   83.510941   42.508457
H   66.269058   68.699463    7.008480
H   67.194603    0.231927   41.667294
H   35.035740   26.564960   96.718147
H   67.804977    6.314659   57.495483
H   56.417629   29.740812   75.052589
H   62.570732   56.078300   11.359067
H   95.865776   81.531883   50.269474
H   43.290028   47.477921   88.601624
H   67.304657   54.091148   54.995159
H   78.097435   41.357788    9.061085
H   99.418938   52.762650   79.069427
H   75.096237   51.030609   28.729887
H   97.741562    9.024450   79.027451
H    7.803970   93.258766   73.363884
H   77.576408   61.749191   27.602818
H   53.458015   79.764862   55.300716
H   38.810898   84.280899   68.698372
H   70.201149   23.386852   54.216152
H   80.477959   96.881760   44.366608
H    0.608746   79.572075    4.642380
H   72.186211   59.946953   36.541561
H   64.775856   94.323036    6.329122
H   96.348122   76.380714   43.493286
H   19.834846   63.728603   28.173262
H   49.856407    8.383391   25.730497
H   23.217316   10.010780   50.942661
H   97.994202   15.983675   94.706360
H   16.067169   68.350273   22.119038
H   98.816757   40.776688    0.940786
H   89.412476   53.243320   76.188225
H   56.754253   38.207428    4.881609
H   23.062178   33.395588   54.365391
H    4.544091   21.442667   71.390808
H   69.933723   37.317612   50.065998
H   88.758652   32.521938   98.728790
H   21.534613   43.716908   54.914574
H   35.872658   27.213154   33.435593
H   76.180069   63.804455   79.433655
H   91.702881   66.020706    7.739347
H   28.930807   62.957611   47.732609
H   79.729919   97.712982   58.632561
H   89.844666   40.153629   24.267586
H   74.492188   31.627190   73.514572
H   90.025398   60.725838   82.664291
H    9.671980   38.125961   61.038895
H   24.936066    8.373741    0.898741
H   71.303619   71.983597   43.506737
H   60.586395   53.619030    3.933143
H   25.196989   46.466537   97.110298
H   99.362900   27.643454   77.059776
H   69.762245   15.645950   51.814651
H   98.894249   50.822147   92.768333
H   69.544098   63.956734   95.088356
H   97.727356   59.184155   45.275856
H   19.115828   44.650238    2.641527
H   49.746391   51.234791   65.529152
H   46.484112   93.001564   76.276367
