100
TIME:    5.174, STEP:  5174
H   67.425941   47.539131   94.409073
H   57.581734   85.235229    4.342336
H   68.693085   46.141937   62.612904
H   82.345047   19.481682   56.559639
H   48.828003   87.476425   25.416012
H   47.788906   95.602715   91.144646
H   81.800423   10.710136   95.066544
H   13.220100   36.218502   33.134434
H   26.441139   88.834305   74.402885
H   33.447472   90.674339   10.296644
H   18.982147   74.429733   41.363567
H   58.365746   83.036644   24.637793
H   13.903336   48.708656   10.907227
H   98.895790   89.128151   50.984558
H   43.435036    7.865117    2.061954
H   93.487885   59.192093    3.553553
H    8.044802   24.190968   44.397980
H   11.710319   43.068401   20.168245
H   25.855225   95.407654   35.948185
H   53.118614   95.939491   68.602608
H   57.244225   41.129623   16.813408
H   58.416763   50.952545   78.664398
H   16.663673   52.542412   84.315536
H   38.318737   98.724335   22.806526
H   44.531647   75.836075   74.751015
H   22.960310   73.702545    3.878755
H   15.918688   27.399422    2.625187
H   95.975136   97.944550   37.797829
H   23.675011   18.517813   12.594685
H   99.388138   62.783195   94.707161
H   19.684170   86.018082    0.028527
H   92.446846    9.561582   20.280922
H   34.806644   89.928230   63.911736
H   96.714752   99.556602   53.778435
H   52.160019   67.805344   39.788254
H   22.404478   90.678246    3.160027
H   76.052429   15.052418   16.156109
H   50.140018   64.270241   87.556496
H   26.675930   68.684563   42.912964
H   75.859917   27.810474   45.114216
H   81.645706   33.715454   64.242897
H   66.610832   44.070099   45.876225
H   55.807529   94.526886   75.196693
H   48.965466   99.488159   86.622360
H    7.849909   27.752373   98.863182
H   11.335350   61.602955    4.180714
H   82.156540    6.217112   75.131767
H   56.515736   48.660492   88.715752
H   16.272598    3.939906   38.081070
H   34.392040    9.482939   21.788155
H   43.149876   70.127121    7.969189
H   56.578957   83.631073   34.398659
H   16.195499   52.009338    2.370613
H   56.871147   22.784142   60.130577
H   28.833771   12.029258   44.355366
H    0.039880    7.091177   16.491638
H   24.261307   40.253288   48.077950
H   40.788467   88.266975   80.284531
H   98.339928   57.383362   14.271824
H   17.588833   25.478794   16.449715
H   86.080261   37.957058   10.990821
H   15.281057   79.783218   61.249077
H   25.322805   54.218796   78.673737
H   98.328407   69.948120   86.665222
H   37.687263   47.605701   77.400993
H   83.499077   85.058281   52.110588
H   72.448700   27.241749   16.862953
H   22.962364   13.443683   13.549720
H   14.772644   78.015694   35.728554
H   35.211243    8.378738   90.838165
H   57.734947   43.361389    0.080654
H   47.346786   79.809875   35.437653
H   69.636810   62.377243   29.086769
H   16.309887   21.956902   95.732567
H   11.631232   36.016430   93.621918
H   47.976402   39.177643   47.784420
H   36.720478   78.098824   82.553230
H   75.064255   12.404797    0.179195
H    9.626124   38.321056   75.411003
H   45.782539   27.165863   75.176544
H   12.118948   82.809067   89.227150
H   29.537079   78.017715   54.131004
H   45.142464   93.646912   22.689062
H    6.113310   54.909592   90.852325
H    0.397692   25.247871   46.191078
H   32.211811   99.103035    1.081337
H   12.714499   27.160980   70.259796
H   39.238754   91.052063   41.936180
H   63.058701    6.092585   85.874153
H    8.887124   96.401779    9.176319
H   35.764091   52.811825   42.727215
H   61.122501   84.613785   32.113106
H   17.116671   82.767159   19.117939
H   47.314987   27.073683   75.674049
H   67.135811   86.274101   34.978123
H   21.272812   91.416534    0.204885
H   51.914391   64.605934   39.627701
H   25.857138   60.291199   73.238564
H   62.235657   59.153378   11.659714
H   60.586628   45.859837   99.312241
