100
TIME:    1.770, STEP:  1770
H   97.624908   59.703293   97.525528
H   52.034492    0.710869   89.651360
H   10.179556    1.245462    2.557586
H   81.773697   59.726280   43.143818
H   79.317322   14.630818   17.712727
H    0.569023   99.290520   54.035328
H   60.203167   80.856789   28.869164
H   80.767784   41.729076   45.678947
H   10.118019   16.115250   88.671776
H   26.469957   41.797935   77.002098
H   35.613937   37.462147   69.253326
H   88.283875   12.411470   66.938515
H   30.673046   54.619957   49.204956
H   67.441582   99.620216   91.937340
H    2.029115   11.923824   65.691879
H   30.357147   56.919846   86.115982
H   81.762115   99.049911   34.509125
H   38.968567    8.625534   38.183884
H   72.830345   52.608536   56.611515
H   44.830490   68.223984   36.842445
H   59.242325   80.008484    9.203857
H   32.067081   46.436134   68.543617
H   62.111977   80.226921   81.707962
H   54.589348   57.910099   75.619232
H   66.278557   45.796684   49.621490
H   38.543064   74.867081   23.270525
H    9.449326   68.902176   35.090000
H   83.194290   39.057323   25.278692
H   49.657883    9.680442   73.503624
H   68.863045   47.032578   24.098274
H   85.728523   80.769806   69.349792
H   77.516113    3.611120   35.406288
H   95.033646   38.980217   57.252533
H   52.888176   11.512735   97.184555
H   36.775703   25.121864   32.508972
H   26.449596   23.526316   14.554971
H   49.564659   39.715675   47.934330
H   90.834312   26.558086   47.344738
H   71.149216   42.723717   72.481506
H   96.479469   46.482067   77.294693
H   14.281845   16.916433   84.044968
H   72.543671   91.295784   85.957748
H   26.486883   74.114105   29.322636
H   66.332802   42.435890   53.794666
H    3.121545   62.053310    7.573538
H   55.252087   96.676826   90.357948
H   54.769642   21.221827   42.747749
H   56.333942   13.607187   78.095512
H   16.770124   85.858055   73.869492
H   63.012356   57.689930   59.867359
H   43.409580   98.761040   72.079453
H   91.152153   99.495880   57.865910
H   45.596268   32.271790    0.070250
H   35.703350   78.328255    9.922106
H   99.849548   13.672258   15.425848
H   95.780899   10.671762   32.371826
H    8.462917   38.474556   24.329290
H   94.259369    9.732747   67.964432
H   29.872971   13.555066   75.600189
H   42.216480   63.837231   13.266747
H   71.353592   96.259590   76.392082
H   36.090393   11.469515   15.266717
H   94.290421   86.452278   12.129386
H   64.583435   51.422852   79.086098
H    2.575493   19.476807   60.398724
H   92.611488   54.281075   50.841564
H   45.558456    9.557193   52.518261
H   58.099785   18.765415   50.818836
H   45.119598   22.605408   49.222023
H   66.241028   37.168854   98.006012
H   65.826881   74.969856   40.919071
H   28.022814   92.782074   86.212975
H   91.583923   30.754833   16.362705
H   91.236198   37.370415   98.012199
H   47.509834   31.162199   35.576397
H   67.505486   21.012617   76.830406
H   27.659147   73.135971   22.351622
H   15.138148   34.984505   12.189580
H   46.394424   48.317234   37.426445
H   12.721415   12.555532   68.434120
H   45.519573   47.593121   85.777702
H   74.128738   55.787003   38.771561
H   29.790630   36.799500   98.483734
H   71.931038   63.622784    1.759986
H   66.145142   38.169975   76.170837
H   10.552425   74.071236   64.697426
H   85.369011   74.659500    7.943585
H   84.448669   63.584106   77.343697
H   92.414253   95.621880   13.718565
H    9.846275   36.453125   87.490944
H   96.458199   69.005112   70.840897
H    9.249187   28.626387   67.246056
H   98.851219   80.666489   55.847244
H   18.304600   20.595808   46.160233
H   25.990192   91.183411   56.759087
H   40.116348   25.835428   76.026062
H   22.108036   69.257179   35.395050
H   13.363978   31.308167   27.716095
H   24.393730   44.480068   96.787003
H   49.164352   33.238628   27.209717
