100
TIME:    2.907, STEP:  2907
H   20.733700   55.434593   96.484573
H   20.406822   62.359329   61.372669
H   29.723478   83.045532   89.214806
H   81.964539   12.881552   80.821106
H   69.133316    5.766370   86.884491
H   82.942024   98.058723   66.636681
H    0.615338   57.633354   17.784126
H   91.401825   40.094074   41.283199
H   82.168327    6.797180   17.101364
H   95.401161   58.123573   21.524286
H   29.852966   83.212097   59.731709
H   44.889595   69.403595   86.005928
H   58.346939   85.829727   36.196922
H   11.143476   96.115669   78.464409
H   15.860409   10.362498   11.034823
H   84.639847   57.472260   91.734718
H   90.343422   74.245346   38.024029
H   63.266182   53.333275   98.762878
H   90.543922    0.303728   16.515100
H   14.200401   44.080997   14.254663
H   91.771225   66.817169   78.340866
H   41.077271   47.943069   71.720383
H   46.931389   70.979774   49.178131
H   48.949722   71.546600   91.174217
H   25.612614   55.620529   58.009850
H   33.329617   40.989902   16.698565
H   11.404575   21.636011   57.652691
H   87.257683   92.128654   62.864201
H   74.380554   12.837945   19.756659
H   12.461028   18.892105   14.486832
H   30.463243   82.731644   79.386360
H   49.306892   72.192513   30.148491
H   75.123383   55.792168   59.682472
H    0.928275    7.313574   49.283295
H    8.510756   39.173309    1.745650
H   25.306923   12.844439   10.647054
H   58.617378   98.074203   37.525448
H   43.838936    5.747787   27.580532
H   22.366707   18.078306   62.602295
H   89.386505   40.039696   66.752052
H   36.578457   55.927883   10.833776
H   70.356560   42.326591   39.373993
H   36.280529   80.932358   11.449628
H   93.728012   61.494034   64.964073
H    4.495275   17.196842    4.870430
H   40.583302   18.363361   94.972847
H   64.445602   82.929901   53.365158
H   56.394665   25.313589   48.446602
H   50.002602   91.692192   28.512114
H   86.850578   74.990288   80.344879
H   43.322834   88.991135   84.067780
H   46.406986   93.991104   83.222832
H   69.180656   38.864502   34.035088
H    9.375874   59.779938   60.094208
H    9.332861   13.345901   25.073614
H   97.203537    9.476833   93.665665
H   80.542564    5.666453   32.467430
H    9.595227    2.357022   38.678909
H   19.546043   61.596676   88.311378
H   67.185516   51.230465   80.928596
H   43.076820   43.382481   87.743332
H   95.739494    0.884309   63.824081
H   71.417580    8.914371   34.128769
H   42.658081   57.607857   48.217358
H   47.706837   28.666431   66.285378
H   22.763435   97.757362   18.069229
H   54.334633   48.864025    7.411747
H   79.559319   83.791260    5.174010
H    1.785342   40.907845   77.911110
H   89.280823   94.356026   95.611816
H   29.722832   97.607018   27.277843
H   34.271919   55.047470   69.459717
H   17.449755   74.513329   87.211174
H   66.218590   65.420166   30.436897
H    2.330604   32.782108   21.768440
H   94.379463   93.883904    0.326025
H   30.891378   74.588028   42.461475
H   68.556473   60.640301   74.983521
H    0.915303   44.979954   50.114998
H   56.960609   50.633305   70.480576
H   67.768509   59.355907   53.733128
H   59.440605   63.212479   43.696266
H    1.724878   55.779572    6.777288
H   50.146648   60.917328   97.907928
H   10.782248   67.051224   65.951393
H   84.386597   15.832550   43.654186
H   61.306679   91.990334   62.160294
H    2.751471   72.552994   65.511513
H   16.011086   32.314491    4.416784
H    9.320259   89.672806   28.136528
H   42.989044   30.401829   94.852249
H   93.379639   14.129322   88.915260
H   71.798965   14.740618   43.807213
H   28.200275   89.563789   22.823120
H    6.329255   89.337982   82.887047
H   34.027893   80.937325   17.298874
H   31.857964   34.507183   70.005318
H   17.537840   40.989044    9.521849
H   70.230705   49.381229    1.545275
H   19.776423    4.036579   17.698736
