100
TIME:    9.551, STEP:  9551
H   71.426910   46.149269   90.401810
H   36.700180   22.418316   80.326591
H   43.943783   61.041023   11.225729
H   83.079712   39.150078   16.639322
H    9.614080   38.311752    6.739643
H   79.911011   90.860786   24.613056
H   52.401142    6.266429   37.353817
H   69.196533   14.885317   31.252609
H   18.846062   68.002228   98.885414
H   13.886087   53.523212   81.681007
H   11.844269   50.546219   19.746588
H   91.305229    2.432993   13.078583
H   34.714172   83.879128   75.955078
H   82.173370   75.637032   84.075401
H   96.612434   16.890419   91.593285
H   17.497967   76.363510   40.224670
H   56.072426   13.695910   42.853561
H    5.309500   30.087105   68.440018
H   94.028305   79.030014   66.543808
H   35.194698    2.987696   66.609093
H   97.506348    5.385208   98.012833
H   78.044022   56.763077    5.922387
H   58.222588   16.951620   59.085358
H   31.631924   51.085907   97.733459
H   87.986435   28.718407    7.072811
H    2.571360   44.540024   92.090172
H   38.485512   45.453762   89.471786
H   26.656305    2.248098   82.478081
H   18.848644   15.633589    5.691707
H   67.220802   54.452286   42.665352
H   91.947136   78.512024   53.734375
H   68.813309   88.628128   15.080132
H   43.117409   69.685837   58.226463
H   81.654297   98.430626   69.383049
H   43.257835   36.525246    6.142620
H    2.889890   33.508549   89.400124
H   95.864441   54.757088   61.046772
H   69.229683   84.166649   96.429497
H   41.921871   73.317284   18.749516
H   63.595005   18.049896   89.487503
H   82.508545   83.900253   67.361900
H   95.307487   79.057419   67.554893
H   93.483063   20.782829   91.351707
H   69.487099   72.962502   14.580005
H   28.177740   55.071949   73.418900
H   54.842445   45.081524   21.963335
H   16.363178   44.256443   17.151201
H   56.770565   93.742203   59.538929
H   44.214119   41.436077   63.483025
H   26.258749   76.111839   15.726654
H   44.463169   47.678398   51.627289
H   69.307617   77.477631   47.072487
H    6.979446   77.388672   48.165977
H   55.508934   51.373367   53.275154
H   80.329842   95.608444   81.573746
H    5.491518    2.486999   67.488205
H    1.744858   13.956583   64.367027
H   14.868953   74.912895   67.543236
H   43.546719   42.334496   78.255531
H   28.751476   61.910969   91.957436
H   62.188717   34.405735   69.730324
H   59.934258   39.042709   63.204826
H   22.477657   55.540062   78.529724
H   98.889465   93.791336   67.832733
H   11.417727   98.019783   85.011436
H   14.616674   67.465111   10.914350
H   21.274010   78.563873   28.185013
H   20.613037   63.769356   22.795639
H   32.922668   63.512390   61.212154
H   24.000824   28.366488   81.586105
H   18.737339   45.547970   47.585487
H   86.765465   34.470116   56.129269
H   84.249069   45.878063   16.860661
H   19.956043   44.936970   35.665047
H   22.551798   42.378582   25.464712
H   51.451309   19.701878   53.267380
H   34.217720   99.136154   60.134254
H   80.695381   26.212105   41.916588
H   19.519285   25.464420   24.246706
H   31.134827   88.730629   98.094154
H   97.792320   28.091837   50.833687
H   57.994286    6.416570   87.967094
H   21.994944   66.844765   39.532299
H    7.243100   29.459312   91.081413
H   87.277344   51.446770   21.891588
H   31.474796   59.880165    5.033578
H    5.044576    8.916478   78.971672
H    9.634640   40.796486   96.551590
H   53.895512   62.387794   50.075935
H   21.901907   16.321373   65.639420
H   14.889557   89.156586   35.161766
H   84.976181   13.806103   15.512292
H   97.691147   14.091566   57.598076
H   68.713417   92.497604   73.291801
H   91.458679   94.208687   35.556435
H   82.795013   18.573687   74.127274
H    4.489198   15.790833   87.901062
H   19.841669   59.042469   87.139671
H   53.725365   78.045723   45.041706
H   32.460739   33.541119   77.662186
