100
TIME:    6.062, STEP:  6062
H    7.374353   66.105888   93.596085
H   33.056587   33.354855   60.335285
H   83.963715   10.028758   52.186329
H   82.494095   82.895416    7.883361
H   40.874268   58.653458    1.340406
H   34.015530   94.640678   79.086876
H   35.261028   70.673897   64.509377
H   43.425049   13.042518   51.601803
H    4.612404    3.456739   18.505243
H    9.185755    3.424965   45.069553
H   36.382553   10.160240   55.826324
H   24.470909   27.547153   61.429192
H   57.238083   95.008751   22.670830
H   54.926674   86.391090   18.560574
H   54.234230   28.544964   59.379116
H   57.784149   81.524269   29.842400
H   36.637215   82.924782   25.236120
H   30.699987   99.862335   89.385292
H   39.684307   32.661827   82.731598
H   29.196434   77.078163   29.061731
H    4.549034   52.726734   92.710686
H   43.550186   52.131378    3.042989
H    4.806223   45.320366   58.909653
H   55.811451    9.347383   56.857403
H   12.772784    5.412102   81.309120
H   18.912306   47.452301   20.374557
H   39.345840   90.486649   20.245680
H   21.048107   39.393364   67.152756
H   42.983482   99.084381   70.618256
H   33.436359   40.805412   65.300186
H   54.634697   65.645866   29.772789
H   48.515568   85.025146   38.074333
H   97.355705   24.957285   43.909790
H   34.236336   18.176476   16.368841
H   30.087093    0.678405   93.862061
H   99.597290   60.230659    0.367316
H   61.222824   82.531372   86.127296
H   13.439800   48.017361   50.219242
H   89.192932   49.335442   56.859352
H   92.220886   44.679386   14.979574
H   20.956749   64.182228   85.163795
H   89.341553   65.375275   89.435417
H   63.456394   99.851959   39.338684
H   92.264999   14.393332   73.445518
H   30.822483   92.717209   74.851913
H   99.876305   78.540207    7.788741
H   89.094040   54.510391   83.654594
H   56.563160   57.806610   43.660114
H   42.227249   30.395004    2.657291
H   53.016247   22.998869   59.678619
H   43.085346   84.396301   17.330170
H   99.735085    1.230748   76.103493
H   34.616459   57.158264   50.798153
H   36.309319    8.293527   99.316612
H   58.129601   89.849533   51.909382
H    1.145973    6.157087   86.262009
H   80.555962   14.630517   32.534187
H   74.666656    4.406155   57.412460
H   68.372864   94.902946   46.102165
H   58.988083   93.732986   91.192894
H   42.096607   96.661514   41.754307
H   83.765694   71.517838   21.067131
H   85.609856   93.622719   17.780914
H   59.307449   74.785400   62.559711
H   72.935364   76.682907   60.096760
H   28.947754   40.913017    4.616224
H    1.202426   57.939358   59.735733
H   61.621956   64.229591   56.001255
H   59.033031   14.209663   80.034973
H   53.198608   53.044167   88.968292
H   29.537506   82.942368   89.430489
H   74.126846   50.339050    0.452617
H   11.737309   18.455551    6.316322
H   96.763084   65.753746   42.969627
H   54.443279   37.283337   60.938858
H   68.970222   96.089775   88.033752
H   17.344906    1.131744   98.257454
H   16.784115   54.341942   49.222267
H   52.206638   35.712719   85.315910
H    2.239305   78.793617   98.674553
H   29.496195   91.995834   42.300175
H   96.182663   83.783722   79.854546
H    1.308815    8.496863    7.257148
H   67.204399   30.897923    9.747600
H   57.160240   69.704597   60.109467
H   11.771931   31.720711   62.746887
H   72.021996   62.596001   12.603064
H   53.522636   19.985937   32.724274
H   81.486435   56.649590   78.611458
H   30.376165   59.870739   40.918808
H   72.104668    0.762940   61.480145
H   26.825510   51.399460   49.030037
H   74.039398    9.408414   87.788345
H   33.136539   80.947701   35.550293
H   51.783882    6.731883   55.384129
H   94.617905   56.349640   54.338791
H   81.429466   15.566234   88.557953
H   26.576265   86.406204   57.185112
H   19.933167   62.981197   37.281357
H   15.745989   23.074512   13.768390
