100
TIME:    0.362, STEP:   362
H   92.842201   88.824135   98.814590
H   91.200508   24.371788    0.835397
H   85.984100   99.947990   19.089394
H   81.537369   17.735731   20.320463
H   91.928650    1.773417   55.889763
H   22.402893    0.819658   14.595343
H   33.998379   85.781548   18.761644
H   91.433807   19.919949   74.956947
H   44.729347   51.488602   77.301125
H   64.947701   21.583908   21.864985
H   66.582672   80.808456    4.880157
H   42.024654   41.835762   67.161491
H   20.235905   39.805984   89.149101
H   37.157764    3.961138   84.788368
H   84.905525   37.687721   33.371029
H   86.968475   80.074471    2.990677
H   94.962303    5.936660    6.314328
H    8.880336   77.096527   86.996384
H   50.901215   93.538605   82.434052
H   82.850380   97.941956   40.884392
H   42.794952   20.178886   47.417023
H   97.058632   44.577736   88.431892
H   80.910805   91.678093   21.993034
H   85.407791   41.023380   80.189926
H   16.636354   57.465199   39.231644
H   44.999119   16.823078   55.242622
H   30.862741   27.428722    7.149613
H    1.997025   73.336121   78.740799
H   19.042648   81.935600   40.059784
H   14.874461   81.880234   12.166718
H   30.341799   54.504860   80.766289
H   88.614349   42.509285   65.751930
H   95.856140   41.996223   30.408773
H   93.397224   40.547485   56.500603
H   71.773750   31.555862   46.771049
H    4.029260   12.922609   19.398741
H   14.519864   91.278175   36.989391
H   49.027161   52.328594   47.986019
H   34.445866   72.780357    7.430203
H   29.097412   78.294380   66.516594
H   10.503635   68.600166   50.868839
H   99.086662   28.104136   19.807364
H   14.359317   65.670746   27.621082
H   56.243118   18.838301   16.126358
H   25.254990   17.609089   87.084534
H   73.328117   70.009331   84.737877
H   39.902454   45.269337   30.716497
H   56.258747   99.110123   90.976471
H   75.610222    2.469195   30.033239
H   33.482082   36.259266   58.344994
H   43.517002   34.695183   57.233753
H   22.725145   30.147713   50.298164
H   16.388262   24.107727   81.846107
H   68.304474    1.295519   47.790119
H   11.940199   90.239594    3.477879
H   94.019180   12.151499   80.303467
H   19.201500   79.101509   90.416573
H   99.103699   42.700371    4.230379
H   18.827469   54.064178   83.692856
H   35.130188   55.613274   53.313438
H   82.535721   61.734489   86.171356
H   86.063049   24.575912   78.976074
H   98.786537   82.467628    8.723399
H   67.898323   43.763672   17.311666
H   46.691032   31.931496   29.273214
H   79.107185   24.277027   67.590126
H   58.524803   60.875660   84.539291
H   55.359993   38.240829   83.508293
H   74.945213   23.775307   37.528713
H   37.719673   66.352684    0.969533
H   10.536909   70.774071   57.805790
H   44.118259   39.511513   83.125862
H   83.388443    0.401981   52.467197
H   22.223053   26.471292   81.693871
H   79.624680   29.158781   28.840343
H   34.216579   30.773001   71.570694
H   99.821777   95.168571   97.438904
H   48.987747   27.050106   34.432178
H   78.904778   52.441555   21.724884
H   81.772324   89.239113   89.734619
H   17.965862   33.026714    1.624907
H   68.485176   46.591690   56.509995
H   40.700680   13.299560   64.378571
H   75.072723   43.138401   30.365456
H   34.703781   26.240326   12.660539
H   42.961605   22.350700   66.921623
H   91.331871   77.032570   40.804714
H   61.782654   76.311470   91.976173
H   63.195503   74.016685   25.239029
H   34.330360   94.391373   37.153057
H   38.837101   92.978821   41.106518
H    5.071047   22.731817   40.421516
H    8.510818   38.477676   46.920280
H   82.216591   35.190399   51.225742
H   50.333317   17.303463   24.404881
H   23.821335   81.436394   48.751228
H   33.868126   88.454948   16.370094
H    8.194301   19.319885   50.243484
H   91.467339   38.410732   14.729221
H   61.722912   69.405968   62.820297
