100
TIME:    5.839, STEP:  5839
H   22.454557   86.556175   93.800247
H   39.215492   21.270132   46.273586
H   80.128860   93.985489   54.804714
H   82.456665   92.082733   20.107029
H   42.871658   40.779022    7.386555
H   37.474384   94.882271   57.002750
H   46.947636   55.615955   47.070484
H   60.952408   93.750076   72.076942
H   10.094170   24.897461   32.542305
H   15.277456    0.222773   36.338200
H   57.125473    1.187587   77.306984
H   32.982788   16.369251   77.302834
H   71.468216    8.494236   44.829277
H   65.968468   87.078438    1.589572
H   51.522270   48.464279   70.098389
H   66.750290    1.028622   48.353241
H   54.569496   68.174034    4.935552
H   25.931089   10.712719   97.116249
H   36.211842   23.306078   70.982040
H   35.203918   81.814735   13.878839
H   17.782173   74.926880   98.764107
H   22.170959   51.835342   22.033463
H    7.783807   47.134010   65.289734
H   76.531227    6.679659   73.419128
H   20.748058   23.097687   79.662209
H   19.928865   54.045052   41.344231
H   58.576256   99.755630   15.820473
H   39.863888   28.984474   59.781509
H   38.134621   78.851868   81.159851
H   24.886059   46.324608   47.572067
H   45.857407   45.649700   47.415840
H   34.435154   91.187454   58.718575
H   81.648796   41.272911   23.820189
H   24.813583   38.613152   25.762873
H   35.630402   17.535906   80.282272
H   80.212051   42.764549    1.068622
H   39.835091   90.697876   68.555702
H   22.656612   52.098911   34.483410
H   98.604828   54.194511   78.469963
H   13.225256   65.556587   97.434471
H   36.196869   56.531197   79.910011
H    8.134889   64.500778   78.049950
H   61.535564   98.514694   23.231495
H    6.504686   10.650351   51.641914
H   50.165241    1.516385   55.769512
H    2.754044   74.286819    6.882769
H   87.351852   42.383133   81.514290
H   56.551250   55.509781   29.862127
H   35.709358   48.863213   11.553235
H   48.339222   19.604666   75.276169
H   43.100658    5.925441   14.979564
H   88.897453   21.923546   90.741951
H   29.990475   55.865234   63.750568
H   41.472931   11.932300   89.475975
H   75.884941   70.307770   50.012371
H    0.868214    6.391662   93.853455
H   66.417702   21.065132   11.325003
H   91.271881   25.466341   63.156235
H   50.785538   85.480843   63.221199
H   73.704224   76.593536   97.535545
H   28.029564    7.032106   59.140453
H   91.680397   73.593491   31.157867
H   70.471199    8.839893   33.072693
H   43.993553   73.570633   68.613541
H   64.084915   94.492691   39.330021
H   42.646873   51.999046   91.430580
H   19.094662   50.230518   48.969559
H   77.026024   51.476231   45.340565
H   47.918079   30.233025   94.020111
H   48.681511   41.827133   89.437866
H   36.618843   98.115051   92.105019
H   92.515091   57.739944   84.126389
H   26.277939   29.485435   12.034576
H    1.672652   79.868187   56.219780
H   43.692417   36.965183   44.034195
H   63.699326   81.798393    3.039468
H   97.097984   20.460001   94.313713
H    6.307169   68.923683   36.906158
H   41.513622   36.367741   82.828529
H   13.175095   90.941292   17.885967
H   25.132219   89.688797   28.971952
H   79.444733   82.337570   98.508202
H   87.204445    4.767735   86.020386
H   51.862923   11.814768   30.114651
H   68.018288   83.652306   81.726883
H   16.904919   23.529537   47.261154
H   57.128334   78.809914    1.969494
H   49.936180   37.830875   35.036415
H   76.858749   69.066078   80.435310
H   50.093098   69.045212   32.947960
H   62.978600   88.720810   56.770794
H   10.325769   34.627502   44.781754
H   59.744614    2.717005   70.543411
H   11.584759   67.418526   20.513720
H   55.639153   26.707478   50.259647
H   76.199036   65.155853   65.856964
H   99.130363    2.769066    1.382815
H   27.006708   75.371216   61.661377
H   30.556427   62.019932   55.960533
H    1.894849   28.797020   35.251354
