100
TIME:    1.815, STEP:  1815
H   94.581696   55.576553   97.484329
H   50.782738    3.150735   92.489952
H   10.953062    4.482840    2.029298
H   81.781250   57.872337   40.677044
H   78.914261   18.237766   16.492729
H   99.871223   99.241768   58.492001
H   57.844883   83.895195   32.388222
H   77.230873   45.622013   41.547058
H    9.011833   11.788612   85.839363
H   25.240347   42.444069   78.764030
H   31.428146   39.272831   64.918533
H   86.566574   14.667015   63.735313
H   27.810593   51.897408   44.732491
H   65.213417   99.481514   95.361641
H    2.576522    7.904289   63.528870
H   28.547836   52.983650   82.380630
H   78.144180    2.025842   38.605995
H   39.930214    6.437140   36.623825
H   73.531410   54.496468   58.982159
H   43.618217   67.268173   39.906258
H   56.571960   75.528809    7.982487
H   36.381962   46.495529   64.712135
H   61.511162   79.860939   80.420502
H   50.408363   58.449802   72.277328
H   64.669060   42.227844   49.953484
H   38.336727   73.526062   19.052633
H    5.568920   67.031754   35.982983
H   79.397141   41.157772   26.766138
H   50.636353   13.763150   71.376396
H   70.588585   45.918839   27.675526
H   87.498695   84.805222   65.788849
H   80.357452    2.367906   31.240410
H   98.203201   35.687752   61.306488
H   54.789497    7.388828   95.288727
H   35.657158   21.720222   35.249031
H   30.362274   27.061338   14.400304
H   53.880569   38.067726   51.480167
H   88.974190   25.734455   50.520130
H   69.126358   41.763100   68.168686
H   92.240807   42.269154   80.835037
H   11.206703   18.460527   85.105148
H   68.499329   93.315208   88.071930
H   26.874495   74.383957   32.573013
H   63.459190   43.190170   58.194347
H   99.218117   60.277988   11.424417
H   54.671528   97.535133   90.540596
H   55.244801   23.649462   43.132271
H   56.336346   14.070501   80.879860
H   18.085394   82.130943   72.074600
H   63.956150   58.374859   56.720119
H   43.406147   94.416634   72.553925
H   93.339119   95.320389   54.911617
H   46.529762   32.532715   97.456871
H   34.661366   77.594231   11.907713
H   96.267319   17.617208   15.807709
H   95.837204   10.624470   30.839920
H   11.315672   37.176109   28.609152
H   90.908539    5.482986   66.805374
H   33.421898   15.456473   72.145676
H   39.247082   67.295883   11.986926
H   74.192184   94.166695   72.883324
H   34.493256   11.050575   13.230556
H   97.342560   83.383659    9.042142
H   67.673340   51.667641   77.864555
H    4.361656   15.882730   64.589615
H   89.847054   52.043983   53.502316
H   41.948074   11.112874   54.690807
H   54.991341   21.339134   52.970097
H   47.362526   19.371994   46.399567
H   67.152893   39.432381   97.911255
H   64.397972   71.908104   40.379368
H   24.312353   91.288620   89.507500
H   88.649887   28.529072   15.208797
H   90.246056   34.522552   95.337715
H   49.679291   31.226229   38.987652
H   68.569099   23.896700   73.802299
H   31.744860   69.235825   23.147615
H   17.252331   32.041885   14.674808
H   48.551521   48.185398   37.928383
H   10.514450   10.104723   64.557320
H   46.400196   48.058666   88.467293
H   77.504974   56.080887   35.008743
H   32.637806   37.550690    2.769733
H   75.026436   67.473488   97.649719
H   63.954056   35.355072   71.808578
H    9.516621   75.723991   67.822350
H   88.374458   71.387634   10.089437
H   85.173080   59.981277   76.875404
H   93.348091   93.116310   13.350437
H    5.867594   34.601585   89.099754
H   98.299782   71.435150   71.791214
H   12.578817   32.010693   68.103676
H    1.738467   82.015060   59.328537
H   22.654156   23.325396   49.194176
H   25.212051   87.152802   57.793175
H   43.833160   24.058561   73.701767
H   18.536278   71.839653   32.807083
H   13.529202   31.691315   26.995975
H   22.250195   44.674046   93.017319
H   51.959000   32.082661   22.875439
