100
TIME:    3.551, STEP:  3551
H   77.182770   96.376617   95.894974
H    2.492083   97.273682    1.996027
H   40.793213   29.376701   81.658104
H   82.072632   86.348381   45.521168
H   63.365067   57.385815   69.422516
H   72.958138   97.361031   30.413179
H   66.860817    1.117148   68.145760
H   40.784698   95.809128   82.153084
H   66.337578   44.879272   76.564873
H   77.801613   67.370461   46.744408
H   69.949661    9.124720   97.699486
H   20.308205    1.684116   40.164558
H   17.383629   46.867020   72.187859
H   79.256386   94.130684   27.472691
H   23.694714   52.837540   80.079659
H   58.746597    1.145522   38.277687
H   38.556923   16.842419   96.649887
H   77.023766   22.015709   76.436707
H    0.576772   27.321962   50.441647
H   96.850548   30.406912   58.101219
H   53.555344    2.703383   60.860123
H    2.818176   48.797989   16.877792
H   38.333061   65.742165   30.752975
H   89.115105   79.270355   43.345737
H    2.580682    4.546463   62.764748
H   30.375353   21.802042   56.334969
H   55.872875   94.865616   70.429787
H   32.919064   22.188370   84.149010
H   88.383545   71.266525   89.315132
H   37.153656    2.952256   65.682892
H   55.810963   40.480511   28.435127
H   89.969612   54.399086   70.530205
H   20.484781    8.674549   17.699080
H   28.140079   48.294746   22.152779
H   92.502228   90.491631   40.958939
H   81.303719   63.436069    8.429444
H   20.386448   74.490219   88.270317
H   17.223427   93.963493   73.024895
H   95.182709    4.048292    0.194366
H   28.729256   79.750854   17.419161
H   92.566528   78.026245   26.005720
H   12.477531   71.230484   69.630280
H   41.827679   84.794235   57.965137
H   52.603439   72.284851   27.932222
H   48.632267   91.787689   59.979549
H   32.274860   30.646687   97.586739
H   69.476852   17.953262   59.551041
H   56.429058   31.944128   88.293709
H   68.826828   38.355446    2.822151
H    0.352530   84.787468   35.302601
H   43.273701   26.817650   90.858002
H   77.704895   34.232735   40.945858
H   82.535088   42.598633   96.632423
H   94.462090   49.270325   88.512909
H   58.057480   69.785828   30.549520
H   98.009323    8.799139   71.742386
H   21.370241   87.083931   93.717003
H   61.641350   41.539749   22.090038
H   70.335747   88.806702   38.870953
H   24.689758    0.728690   62.611702
H   83.700233   13.434894   37.531689
H   72.882683   94.889877   34.683121
H   15.137265   64.969292   89.967735
H   86.880424   61.111061   30.730816
H   73.269112   77.232033   26.258558
H   83.201698   65.742104   56.146637
H    2.664713   71.127899   38.505230
H   35.074028   20.622854   35.960934
H   33.883682   94.634125   37.520313
H    2.330138   26.747187   94.255737
H    9.271500   53.789940   19.551632
H   81.170639   33.674484   16.608921
H   75.459503   42.658588   70.702385
H   52.042309   24.664703   92.166191
H   33.379856   33.700901   70.587807
H    9.603530   35.158272   56.991276
H   89.362740   18.769199   53.850574
H   98.812759   18.528936   10.547394
H   31.796072   43.088322   57.303200
H   25.377724   15.558193   14.999275
H   80.366287   66.018387   92.224152
H    7.759372   67.418289   89.844727
H   42.470707   66.529938   68.115112
H   94.453522   16.025600   39.087624
H   79.424835   26.767200    3.522865
H   69.567993   39.488556   88.375320
H    4.317999   45.166298   92.868607
H   13.116140   20.992508   58.813538
H   29.377800   96.458687   99.148201
H   52.382999   63.179977   51.155891
H   69.344147   65.173744    8.452432
H   41.032104   62.559967    1.188602
H   13.080346   34.064827   93.608727
H   90.445168   28.626656   66.242989
H   95.194572   31.652729   97.685997
H   87.219604   55.505928   84.035042
H   80.740845   71.465248   32.968636
H   19.901152   46.472321   99.217064
H   39.551872   52.157261   47.603981
H   59.775845   87.509193   55.661354
