100
TIME:    7.580, STEP:  7580
H    4.718094   26.898506   92.206314
H   91.136063   15.612208   56.049526
H   10.064211   19.239399   34.362522
H   82.748886   20.354664   24.676678
H   27.275667   80.327766   60.180145
H   10.471181   92.996117   29.418587
H   55.701115   73.176361   83.219025
H   24.113243   44.367779   12.222804
H   67.297005   57.507309   22.952488
H   67.723000   25.222567    4.505777
H   95.181900   71.240372    9.605894
H   66.535782    3.636956   53.376167
H   60.398293    3.179058   71.826530
H   79.765129   81.712196   34.081615
H   72.672676   92.949875   86.379913
H   96.747162   48.754517    3.834386
H   14.568699   83.328766   63.425655
H   63.162708   25.996033   36.765312
H   63.321987   96.342178   62.703922
H   88.299118   44.842373   32.414223
H   14.468765    1.603634   51.507504
H   89.082321   54.146545   73.771271
H   84.538277   32.974571   15.477157
H   14.766279   27.507051   44.117294
H   58.479805   85.028122   92.519936
H   11.867001    2.644707   77.571266
H    8.446665   27.384771   50.368954
H   92.963615   10.248466   17.326391
H   75.990532   36.808582   98.862206
H   91.644577    3.234299   85.977135
H   14.375533    1.769433    9.673531
H   44.363033   43.083019   97.545525
H    4.281355   13.893606   80.663216
H   98.374245   79.060982   52.417572
H   92.310280   85.757683   86.225052
H   31.553749   79.126770   95.595589
H    6.819990   26.940023    5.739718
H   50.695946   20.233532   57.339806
H   25.117481   16.261660    9.754219
H   49.241776    2.568610   34.412903
H   17.212267   16.272024   20.925993
H   61.412834   71.328125   66.930992
H   76.520721    8.958046   48.984226
H   95.335770   39.872459   21.867908
H   99.147316   32.824131    4.750767
H   80.280540    7.492558   13.955847
H    0.953992   37.064888   98.224022
H   56.650265   73.441528   37.584972
H   86.601570    4.675266   42.105080
H   84.883545   46.105885   53.539452
H   42.981113   37.843796   33.330383
H   73.516464   60.371876   76.456940
H   66.105568   65.960144   62.635780
H    1.159706   83.529526   66.300797
H   37.264450   22.879601   64.821930
H    3.036640    4.560299   34.585709
H   76.790344   70.828682   76.908485
H   61.633224   61.049965   18.311556
H   88.091621   59.050793   29.569466
H   58.815750   10.411443   48.017357
H   37.853252   26.066910   23.399864
H   29.888924   57.388504   52.384331
H   88.666817   90.037140   13.687103
H   63.546146   83.054535   21.341434
H   33.185410   55.443089    1.460956
H   35.695923   65.449089   94.372604
H   79.410706   10.423506   33.025372
H   56.763329   51.045952   28.570435
H   34.688446    5.135864   84.828369
H   83.970619   29.368311   85.766541
H   81.332848   79.658813   71.224495
H   49.072422   99.913475   11.657628
H   12.760759   43.374287   67.400940
H   63.339336   69.680176   52.775452
H   27.606916   39.476337   76.022430
H    4.850757   93.379539   85.891426
H   55.208698   69.733101   25.173449
H   88.102509   55.083797   33.054752
H   25.002119   31.253872    2.249140
H   27.794380   96.100456   67.897438
H   59.206001    7.700936   33.029144
H   10.094159   93.628067   52.860828
H   97.326256   33.882481   51.824661
H   71.640327   60.796261   71.100609
H   83.246902   74.745689   12.956920
H   76.838791   87.480347   68.161392
H   73.405846   52.224724   84.986946
H   77.936272   98.514465   16.985123
H   12.989919   72.130058   66.196175
H   96.164551   97.412613   95.184418
H   34.227558   82.729408   93.537521
H   39.142139   65.567795   77.954430
H   71.346130   54.958141    5.177615
H   79.843513   73.042686   37.906490
H   25.538956   70.760117   90.267365
H   19.998550   96.406677   75.931984
H   60.937523    2.680515    1.255651
H   23.646166   61.516155   26.713388
H   47.619255   69.534477   10.132229
H   10.035051   84.118332   67.535675
