200
TIME:    0.875, STEP:   875
H   28.983248   60.367565   26.197683
H   33.623718   42.148434   15.676100
H    4.828621   96.931999   76.625359
H   39.247040   84.395790   27.894604
H    8.468185   99.823227   44.528728
H   68.960938   35.580097   46.754353
H   12.559241   54.853577   61.942280
H   17.118622   16.305775    2.532823
H   13.215916   77.986458   32.228600
H   88.507996   66.003143   71.025536
H   34.326637    8.158849   13.028267
H   33.403610   58.971905   42.998928
H   26.759464    8.082991   35.266136
H   74.390625   55.886036   72.864708
H   88.964310   76.832855   41.416187
H   10.791514   99.802780   40.624714
H   14.081365   37.458115   84.604095
H   21.484003   13.694086   32.215340
H   86.153008    6.712995   51.831615
H   92.076477   70.984276   12.854898
H   65.705734    8.456652   96.748573
H   75.892296   73.086143   46.104286
H   75.989899   57.924492   33.899734
H   22.058233   93.848557   89.594925
H   30.846748   38.242702   22.751850
H   18.135447   90.517555   85.983994
H   11.193012   71.538231   74.613251
H    9.083823   96.324539    2.402127
H   37.813568   37.228584   34.620083
H   64.354469   37.775589   76.660187
H   12.532449   77.978645   16.971170
H   20.378792   78.389145    9.237336
H   11.780243   22.649017   80.935463
H   75.410393   64.270706   49.389427
H   17.514915   63.562344   29.388302
H   12.315864   35.444061   86.754967
H    4.489922   60.723442   90.722084
H    1.505475   61.181152   86.617165
H   29.568779   23.662622   58.546566
H   83.993004   37.077213   38.891693
H   80.693253   75.560097   22.601322
H   44.945908   29.791122   21.001638
H   65.268448   73.194641   73.907272
H   35.866623   94.075035   41.458412
H   50.473660   95.668968   67.279182
H   32.123806   97.312805   49.593948
H   91.940475   95.101547   10.100986
H   74.656494   65.540916   24.819595
H   11.638076    4.655082   61.624153
H   39.393494   20.667124   78.848427
H   63.102570   62.458817    2.703374
H   96.864632   46.627544   77.193993
H   69.304527   76.263084   16.225355
H   12.955667   95.584045   91.106659
H   50.320694   62.262733   70.236816
H   97.165825   56.705502   99.441528
H    3.618308   19.148415   42.842991
H   74.346237   73.341087   93.841652
H   14.782028   86.744156   22.484425
H   28.416687   92.423500   55.255608
H   48.362957    2.987397   23.683313
H    1.349306   17.929152   53.934418
H   88.941399   38.360359   63.461746
H   39.512077   66.058289   17.845325
H   81.556084   85.545547   43.896351
H   13.830021   41.230919   44.277328
H   62.455666    9.767416   98.954475
H   93.785439   92.893639   99.843460
H   39.109146   14.434361   53.942505
H   41.581665   52.697624   50.948681
H   58.186596   87.574989   90.266739
H   14.293962    7.131055   40.319847
H   97.647598   36.641109   78.232521
H   28.553059   95.007050   79.059425
H   86.877121   11.150750   37.755043
H   69.364136   96.658600   58.728016
H   92.743637   53.589741   63.163338
H    3.035877   17.532944   26.253746
H   16.361649   57.979790   20.863094
H   58.706535   87.125496   64.147186
H   70.318970   19.369904   91.706161
H   54.558456   57.169922   68.226646
H    8.522272   20.631718   71.700424
H    3.966814   82.623833   14.547422
H   16.295742    6.038746   39.786686
H   42.556637   63.556686   14.564218
H   64.315178    4.107308    3.227134
H   70.050804   94.910721   35.392834
H   85.122177   73.602745   79.457581
H   20.263607   14.510489   47.879498
H   14.624566   40.374535   77.930046
H   79.632248   94.106827   12.223423
H   77.426079    9.700472   77.644691
H   31.553326   71.620117   86.540619
H   41.214554   48.336609   94.386810
H   42.975227   41.906590   99.205414
H   87.919411   92.314949   25.677078
H   95.551605   39.357311   55.870853
H   22.629250   63.416985   55.131596
H   78.245422    8.245294   27.405436
H   38.197720   97.983459   98.841072
H   14.184120   86.263542   62.361908
H   36.342354   13.963116   39.376053
H   52.388008   69.111893   15.379609
H   24.496979   19.127796   45.674942
H   12.562767   95.683617   14.160789
H   89.626022   36.929501   52.038925
H   61.009178   58.655155   94.187599
H   88.934143   32.074154   29.838078
H   24.765196   19.206762    8.645117
H   55.549168   90.548706    1.242620
H   11.490638   79.313416   97.744247
H   46.065159   87.643394   80.123230
H   61.073143    5.707584   58.579815
H   42.659691    8.410538    4.507475
H   88.124069   87.222130    7.581118
H    6.466816   17.384239   91.582748
H   37.549412   58.251839   21.285484
H   42.977322   81.554207   52.156830
H   87.540329   59.348507   73.031677
H   47.182076   25.979137   66.711990
H   90.890984   12.437344   66.866402
H   47.545540   95.040909   42.867119
H   94.721947   44.468609   90.057335
H   57.915596   93.230347   71.811508
H   70.985893   79.726265   13.270945
H   79.602715   52.154861   46.531067
H   61.539017   92.550285   40.365620
H    0.282175   29.498154   70.419250
H   98.523354   21.139597   77.319748
H   74.242081   62.512665   27.678272
H   57.326492   92.349442   24.301846
H   90.364235   13.488636    2.099398
H   69.783897   29.283638   57.522129
H   35.795483   89.888290   27.237465
H   45.445351    0.811887   74.326553
H   69.944008   88.182640   86.950104
H   96.634682   44.394157   73.165070
H   62.911057   53.213905   71.399902
H   43.791916   78.635811   77.813217
H   82.054695   44.394901   35.422226
H   28.005751   60.304707   61.049767
H   34.592503   68.447823   77.965981
H   28.616020    3.541706   88.647041
H   70.149925   48.707314   69.832779
H   69.207184   72.915436   99.433662
H   59.749718   93.996956   42.735176
H   25.313385   49.781570   65.181786
H   82.160980   38.279919   91.631859
H   29.704008   95.607513   66.233849
H   53.838970   72.094177   46.550400
H   60.517811   89.538681   28.252865
H    5.674997    8.094883   81.173943
H   26.695665   15.718385   60.260071
H   38.792686   70.649811   72.240601
H   82.352692   45.103420   73.598259
H   65.958145   79.927574   88.274704
H   55.074100   26.471565   24.600889
H   83.318832   99.341522   79.055191
H   56.560440   31.034500    2.609537
H   60.193455   58.611542   66.532227
H   13.789295   19.765562   30.042858
H   92.552956    6.884017   36.968018
H   34.583321   38.834045   44.031689
H   52.874130   43.635014   16.063862
H   22.854162   44.234619   58.830620
H   63.965424   87.296272   58.953362
H   24.186928   59.823727   74.270798
H    2.701871   26.105171   35.357510
H   55.451321    5.667734   83.252625
H   67.233948   13.185441   35.922783
H   24.225864   41.861004   59.408092
H   49.942059   50.167854   72.556900
H   63.406460   59.350368   88.971901
H   41.924164   90.259705   69.373749
H   20.509178   51.095181   23.907253
H   28.894402   72.758705   13.470058
H    7.357928    9.806442   72.999863
H   59.361557    6.617483   61.708717
H   56.094677   61.266701   95.342789
H   69.824532    7.945311   26.955595
H   32.035748   30.881191   92.797890
H   36.396629   89.496544   18.647713
H   65.309502   26.395317    0.551250
H   93.734673   60.792458   75.780716
H   12.553800   41.581970   87.132301
H   53.463043   93.647964   13.335247
H   59.914192   94.122139   47.746250
H   88.228462   64.005104   73.800720
H   61.160831   54.819065   73.725784
H   78.154015   10.015453   74.766853
H   42.447323    2.185992   16.536219
H   18.205288   32.630955   72.353714
H   24.010155   88.873573   46.110466
H   63.103199   25.892504   19.739134
H   76.878433   11.941611   20.866564
H   13.682195    2.874522   24.899580
H   10.454766   84.785828   29.058407
H    3.445450   13.388676   49.617638
H    1.384716   13.479032   88.926659
