100
TIME:    1.585, STEP:  1585
H   10.135506   76.668777   97.694901
H   57.180595   90.681129   77.981590
H    6.999531   87.935661    4.729436
H   81.742645   67.348045   53.285000
H   80.974350   99.802269   22.728279
H    3.437881   99.490944   35.713451
H   69.899193   68.365562   14.401924
H   95.308418   25.724781   62.665604
H   14.665672   33.902191    0.316170
H   31.525023   39.141609   69.758598
H   52.822189   30.018223   87.074142
H   95.343887    3.138675   80.107231
H   42.440285   65.812660   67.592033
H   76.601814    0.190483   77.859657
H   99.778740   28.448322   74.583939
H   37.795425   73.101189    1.472412
H   96.635849   86.815567   17.665834
H   35.015129   17.622330   44.597458
H   69.948189   44.847038   46.865536
H   49.814278   72.153427   24.246775
H   70.220490   98.424927   14.225048
H   14.328095   46.191956   84.295265
H   64.581993   81.731514   87.000854
H   71.777840   55.691319   89.358170
H   72.895378   60.468582   48.256630
H   39.391338   80.380157   40.610397
H   25.402103   76.591690   31.418852
H   98.804794   30.422146   19.163637
H   45.635284   92.895844   82.248894
H   61.769161   51.611282    9.391795
H   78.451149   64.179764   83.989227
H   65.835052    8.722138   52.532677
H   82.003250   52.515907   40.586273
H   45.071632   28.466835    4.978220
H   41.374168   39.106392   21.244286
H   10.364144    8.993444   15.190824
H   31.821465   46.490578   33.356998
H   98.481483   29.944126   34.290348
H   79.465408   46.672920   90.211990
H   13.904501   63.801823   62.739819
H   26.924095   10.568492   79.686447
H   89.170410   82.993706   77.266113
H   24.893370   73.004715   15.959847
H   78.146538   39.334961   35.707088
H   19.168884   69.352890   91.742508
H   57.638828   93.148232   89.607063
H   52.816212   11.241717   41.166939
H   56.324062   11.702452   66.648750
H   11.362905    1.180518   81.248489
H   59.132313   54.874111   72.806969
H   43.423695   16.622019   70.128845
H   82.161293   16.662554   70.010635
H   41.758568   31.199097   10.814846
H   39.987064   81.345909    1.759031
H   14.577572   97.454163   13.855976
H   95.549423   10.866188   38.669662
H   96.734634   43.812614    6.734119
H    8.034809   27.204105   72.729446
H   15.282936    5.738169   89.802078
H   54.424007   49.616993   18.528404
H   59.683819    4.863114   90.816978
H   42.656403   13.191822   23.637924
H   81.742737   99.067711   24.821144
H   51.879143   50.416496   84.107994
H   95.232918   34.252552   43.169300
H    3.976302   63.478004   39.902920
H   60.401138    3.161481   43.586681
H   70.878944    8.184571   41.974766
H   35.898674   35.898331   60.825455
H   62.492813   27.863558   98.395569
H   71.701286   87.557060   43.137852
H   43.276409   98.921829   72.668816
H    3.646260   39.905186   21.106548
H   95.306786   49.078293    9.007332
H   38.590958   30.898966   21.551823
H   63.132572    9.155832   89.279289
H   10.862329   89.169907   19.079203
H    6.446513   47.081940    1.972446
H   37.526360   48.859226   35.362923
H   21.794266   22.631083   84.372078
H   41.899235   45.679211   74.720497
H   60.248280   54.578812   54.240921
H   18.085575   33.711273   80.863342
H   59.204983   47.792095   18.657722
H   75.152939   49.742355   94.104568
H   14.810734   67.276573   51.850517
H   73.013283   88.110504   99.121902
H   81.470535   78.395737   79.267693
H   88.575142    5.922317   15.231979
H   26.202858   44.065010   80.876945
H   88.887245   59.015659   66.934036
H   95.560905   14.713137   63.720398
H   86.981026   75.122360   41.535263
H    0.423342    9.374169   33.687355
H   29.189217    7.754275   52.507835
H   24.836121   33.140434   85.581497
H   36.792160   58.640347   46.034470
H   12.684724   29.733002   30.676586
H   33.206139   43.682606   12.283558
H   37.675247   37.990940   45.027901
