100
TIME:    5.539, STEP:  5539
H   42.742104   14.067395   94.074905
H   47.501015    5.012989   27.356785
H   74.969864   72.401932   58.327206
H   82.406311    4.442753   36.551361
H   45.558731   16.732698   15.520443
H   42.127552   95.207283   27.291780
H   62.669529   35.357624   23.610094
H   84.531815   67.794876   99.620583
H   17.468742   53.741150   51.427345
H   23.473764   95.915199   24.590658
H   85.030746   89.116394    6.205341
H   44.433746    1.332270   98.657509
H   90.611893   26.636555   74.638847
H   80.822899   88.003120   78.760750
H   47.873894   75.261765   84.517944
H   78.812363   27.267960   73.255585
H   78.693642   48.331783   77.625366
H   19.515532   25.309658    7.515829
H   31.540249   10.719867   55.176739
H   43.285736   88.186806   93.453529
H   35.584602    4.791726    6.906734
H   93.409668   51.437088   47.581253
H   11.789796   49.573891   73.872803
H    4.404655    3.090792   95.698486
H   31.476894   46.889954   77.446632
H   21.296434   62.914223   69.554367
H   84.444962   12.226652    9.867828
H   65.176033   14.981483   49.864059
H   31.611488   51.633244   95.341370
H   13.383472   53.749535   23.722977
H   34.049393   18.748653   71.150887
H   15.492908   99.477554   86.491096
H   60.518047   63.222679   96.793816
H   12.137137   66.106438   38.401161
H   43.087372   40.214249   62.013176
H   54.133259   19.266918    2.012115
H   11.061524    1.684356   44.916790
H   35.055141   57.589787   13.314056
H   11.268239   60.731377    7.542295
H   41.481480   93.640388   73.832176
H   56.700104   46.238380   72.842140
H   33.806725   60.452660   63.021801
H   58.951488   96.715683    1.562404
H   25.660069    5.614815   22.310328
H   76.187889   13.352410   30.098040
H    6.625340   68.564774    5.663973
H   85.008102   26.068020   78.634956
H   56.535229   52.419876   11.299811
H   26.940895   73.709229   23.520535
H   42.047260   15.038473   96.260056
H   43.122028   34.889160   11.816989
H   74.317680   49.762028   10.436066
H   23.767178   54.125732   81.173088
H   48.419495   16.827606   76.237450
H   99.771049   44.016659   47.460339
H    0.494529    6.707232    4.066177
H   47.399620   29.721443   82.792381
H   13.610393   53.797600   70.883286
H   27.126020   72.805367   86.251289
H   93.502502   53.534939    6.068245
H    9.104677   20.983231   82.531700
H    2.327760   76.385849   44.732849
H   50.103733   29.312029   53.644592
H   23.392376   71.936417   76.757156
H   52.176208   18.453022   11.391860
H   61.076439   66.912987   73.692238
H   43.164490   39.859882   34.485916
H   97.748985   34.319248   30.998831
H   32.965229   51.789116   12.835393
H   42.604698   26.737354   90.069580
H   46.144905   18.527176   95.703041
H   17.251537   67.696304   62.162697
H   45.838516   44.323845   19.727295
H    8.275944   98.856224   74.045097
H   29.229155   36.537174   21.291958
H   56.606277   62.572151   23.225397
H   69.861046   46.462757   89.008232
H   92.212616   88.538857   20.337404
H   27.128399   37.248936   79.482277
H   27.885406    7.283204   43.731384
H   19.261400   86.585159   11.042336
H   56.928055   80.392075   23.603605
H   68.230141   99.751038   57.450832
H   31.224604   86.143112   57.514095
H   82.625526    2.416281   10.808414
H   23.810284   12.510020   26.428329
H   37.092018    0.622361   87.664352
H   45.111351   61.838291   38.146919
H   70.633163   85.769875   82.888924
H   76.617126   81.386520   22.223803
H   50.701378   72.520554   50.435345
H   88.128807   12.065244   39.066574
H   40.513962   93.716713   47.343952
H   82.590614   49.217846    0.285480
H   60.825615   53.580494   43.365726
H   51.420288   77.002777   81.352264
H   22.942507   85.552666   18.636414
H   27.196592   63.398956   67.396202
H   44.847809   60.726749   81.087914
H   83.259476   36.494793   64.152252
