100
TIME:    0.737, STEP:   737
H   67.482094   54.434639   98.471268
H   80.769218   44.704540   24.489897
H   92.427124   26.926414   14.686279
H   81.600311    2.284777   99.765007
H   88.569809   31.831322   45.721687
H   16.587864    0.411520   51.733639
H   14.344788   11.102646   48.087132
H   61.959549   52.361088   40.525444
H   35.511131   15.433979   53.696434
H   54.699516   26.966923   36.550613
H   31.701080   95.897491   68.757088
H   27.710957   60.632683   40.468147
H   96.382278   17.118073   51.876625
H   18.589725    2.804927   13.325527
H   89.465996    4.192749   15.345018
H   71.890884   47.274242   71.862778
H   64.812843   30.735977   40.456902
H   16.893425   58.860367   73.995895
H   56.740562    9.270015    2.191983
H   72.699471   90.079865   66.467659
H   20.541916   82.846771   37.240364
H   33.016285   45.072693   56.502201
H   75.904015   88.628242   11.263084
H   50.566254   45.520908   52.339531
H    3.225230   27.724865   42.000404
H   43.279644    5.649940   20.094469
H   98.526077   11.840247   14.591093
H   70.354271   90.839859   91.134750
H   27.196564   15.958531   22.333668
H   29.252588   72.599075   41.977627
H   45.093235   88.133324   51.091759
H   12.291714   32.149521   31.036278
H   22.270741   14.559923   64.191734
H    9.241982    6.181083   40.702034
H   62.452538    3.208524   69.605576
H   36.634705   42.380627   18.108419
H   50.486477   77.545265   66.538033
H   33.528999   45.465000   74.448753
H   17.587082   64.775215   71.489532
H   93.776421   43.187931   96.019463
H   84.875763   81.469048   59.706539
H   65.383812   44.935532   37.425541
H   17.589048   67.919510   54.706619
H   32.296356   25.122538   52.792610
H   92.726295    2.813932   19.174627
H   68.538765   77.058891   86.208443
H   43.862110   65.499420   33.920845
H   56.278774    2.971508   14.179275
H   86.573662   71.410141   15.074336
H   41.347034   41.967007   32.117996
H   43.488392   98.490547   61.187687
H   40.949135   95.350632   25.679062
H   24.167383   26.282104   60.067482
H   59.622684   95.178185   64.338272
H   82.087402   23.113832    6.660023
H   94.488388   11.757393   67.537582
H   42.973740   68.281120   26.082390
H   71.180115    7.286636   94.571243
H   48.401863   69.908524   54.904339
H   10.385037   84.436050   42.647545
H    6.190853   44.296555   56.932396
H   72.753571   21.085464   62.009872
H   24.222836   56.895805   82.996925
H   93.647530   45.803581    7.129286
H   61.576935    1.980613   64.197594
H   56.070229    5.634647   89.763054
H   28.438116   73.841125    2.644024
H   29.456291   59.687057    1.435462
H   93.633415   96.830215   14.008305
H   45.315689   85.212547    0.180965
H   98.628288   45.257366   53.308262
H   13.198378   27.066063   10.580866
H   58.938141   81.851173   42.851299
H   13.969178    2.740217   59.406502
H   97.706345   29.692362   57.267628
H   43.082890   54.808380   46.338474
H   33.869534   62.667351    4.075079
H   66.605927    2.529639   55.143124
H   96.877724   51.343601   25.906269
H   63.381668   68.817131   57.427948
H   25.304386   36.906261   24.037170
H   96.620476   49.040726   25.150635
H   64.427193   19.558355    0.095580
H    0.867785   75.227638   96.113289
H   16.443514    2.783193   76.308617
H   34.329899   36.125523   92.962654
H   16.377295   49.767021   58.686108
H   67.819412   46.287895   88.079460
H   70.977486   53.136940   22.170582
H    1.175508   78.959015   50.559811
H   54.183628   13.228079   49.025829
H   32.817493   50.935310   47.565491
H   32.570625   49.712914   75.931053
H   18.461229   57.938393   76.510017
H   43.850239   83.713654   33.021019
H   54.794769   66.627739   29.382103
H    4.103098    9.975265   94.803268
H    9.571168   22.512787   44.243919
H   73.603111   40.027210   83.316444
H   85.011642   59.774509   26.702532
