100
TIME:    3.347, STEP:  3347
H   90.978668   15.084270   96.081741
H    8.166904   86.213928   89.127792
H   37.286652   14.700660   84.051842
H   82.038391   94.752922   56.703876
H   65.192276   41.034313   74.953949
H   76.120735   97.582039   10.210264
H   77.553261   87.342934   52.192696
H   56.818695   78.159592    0.882818
H   71.352287   64.492981   89.405144
H   83.376625   64.441322   38.755424
H   88.925247    0.916536   17.349840
H   28.094856   91.458649   54.685738
H   30.360085   59.209244   92.464592
H   89.357399   94.759468   11.947636
H   21.213039   71.059830   89.884956
H   66.948807   18.988373   55.211281
H   54.961342    3.349658   78.078964
H   72.665855   31.936180   83.508972
H   97.398781   18.763338   39.694729
H    2.347069   34.738651   44.211937
H   65.660995   23.012756   66.396896
H   83.260498   48.527176   34.250290
H   41.056755   67.401283   36.589630
H    8.068985   76.823700   58.497257
H    9.876660   20.725204   61.258156
H   31.311525   27.880548   75.456230
H   73.463989    3.345277   66.383156
H   50.131252   12.666336   77.406700
H   83.947815   52.757858   98.958565
H   29.331474    8.001595   49.465240
H   47.781513   22.187765   44.574959
H   77.088875   60.034798   89.415520
H    6.115084   23.599613   99.321144
H   19.519978   66.990181   30.746422
H   97.572968    5.912557   28.537338
H   63.563915   47.409855    9.133714
H    0.820282   81.960922   72.195854
H   25.654427   97.695732   58.628811
H    3.793252    8.492582   19.962999
H   47.943104   98.847839    1.368820
H    6.508450   71.025574   21.199568
H   30.811882   62.075432   60.045990
H   40.070507   83.570908   43.230732
H   65.630478   68.867004    7.986225
H   66.327141   99.837372   42.523006
H   34.906727   26.755695   96.758736
H   67.883102    6.858511   57.591537
H   56.418163   29.843771   75.671333
H   62.863014   55.250130   10.960145
H   96.075432   81.684013   49.570087
H   43.289265   46.512497   88.707062
H   67.790649   53.163185   54.338650
H   78.304802   41.415771    8.480297
H   99.187309   52.599457   79.510712
H   74.300034   51.906998   28.814917
H   97.754074    9.013922   78.687027
H    8.437915   92.970222   74.314964
H   76.831779   60.804825   27.345211
H   54.246666   80.187378   54.532970
H   38.151031   85.049484   68.413948
H   70.831947   22.921803   53.436504
H   80.123039   96.788681   43.914108
H    1.287652   78.889702    3.956649
H   72.872856   60.001350   36.270031
H   65.172737   93.524391    7.260404
H   95.733803   75.883583   44.084564
H   19.032501   64.074310   28.656088
H   49.165642    8.955329   26.208555
H   23.715744    9.292244   50.315449
H   98.196838   16.486643   94.685303
H   15.749611   67.669884   21.999065
H   97.992172   40.444809    1.672946
H   88.760468   52.748707   75.931877
H   56.534069   37.574570    4.287432
H   23.544317   33.409855   55.123447
H    4.780517   22.083574   70.717896
H   70.841621   36.450836   50.242847
H   89.228470   31.868032   99.281006
H   22.014120   43.687534   55.026192
H   35.382240   26.668530   32.574081
H   76.375687   63.907909   80.031342
H   92.453156   66.086014    6.903128
H   29.563513   63.124542   48.685062
H   80.417938   98.568695   57.719246
H   89.357758   39.528095   23.298195
H   74.262085   31.994507   74.209000
H   90.693275   59.998756   83.141129
H    9.832922   37.325333   60.934906
H   25.143623    7.816967    0.816927
H   70.419525   71.572220   43.864174
H   60.995636   54.158962    4.144326
H   25.936926   47.218567   97.300880
H    0.003922   27.943518   77.833092
H   70.728737   16.252525   52.488861
H   98.721367   49.926380   92.998131
H   70.370056   63.561836   94.571846
H   96.933594   59.758038   44.700752
H   19.152525   44.735382    2.481520
H   49.270012   51.277897   64.691597
H   47.105221   92.744911   75.313080
