100
TIME:    8.322, STEP:  8322
H   54.539055   58.854027   91.526993
H   70.643204   55.822353    2.833273
H   22.818468   72.622055   25.652290
H   82.873428   89.783318   84.005806
H   20.626810   39.802250   40.060913
H   98.964111   92.192253    2.901193
H   16.814526   23.278902   41.244404
H   65.793503    8.561286   44.095779
H   49.057228   86.166229   76.247665
H   47.456581   35.876591   33.560677
H   26.162857    1.096510   38.132423
H   38.214249   40.829327    0.560528
H   13.083477   58.265633   98.089951
H   43.025169   79.425148   90.547539
H   81.685005   26.670761   50.695015
H   66.913635   83.856346   42.242462
H   54.901314   32.406345   30.972845
H   79.025162   89.890587   11.045305
H   74.881439   27.471233    1.798433
H   68.304428   29.087255   82.933083
H   70.437447   27.735867   31.371199
H   60.218586   55.131561   10.583069
H   74.631508   26.942308   94.247330
H   45.824371   36.383514   89.009811
H   31.940994   26.183937   97.999794
H    8.368496   80.770920    7.744614
H   44.463799   96.540482   65.092819
H   30.355806   44.882526   41.853859
H   92.124413    4.129216   63.786583
H   20.095566   84.869736   44.963409
H   43.579060   68.304695   50.968925
H   91.213554   22.584499   28.854820
H   56.548283   59.605141   47.508438
H   29.726891   11.061024   21.158453
H   73.844063   29.577812   31.369474
H   96.055283   37.244797   93.263252
H   77.986656   99.764412   64.206383
H   20.029144    6.653742    9.702498
H   93.796806    0.096627   37.848381
H   79.353653   33.105331   92.792114
H   66.501785   41.729591   38.407192
H   98.880951   74.237885    4.814056
H   82.906342   13.409016    2.580893
H   47.955509   52.328842   94.416534
H   34.784119    3.550964   68.247246
H   70.702110   21.642281   16.970335
H    6.754405   77.416573    5.348952
H   56.695553   81.083893   83.495766
H    8.292648   43.221649   12.505352
H    0.462518   57.399601    1.657639
H   42.930164   66.208107   41.153900
H    9.577635   91.518951   27.749355
H   81.492195   70.262512   19.543348
H   83.973267   71.426285   99.044083
H   78.184700   87.905151   71.128296
H    3.960800    3.779787    9.326279
H   23.830933   49.418739   47.478951
H    6.382827   90.976753   99.198387
H   46.613674   90.402367   72.606903
H    9.853490   67.445786   26.913109
H   84.658493   91.560181   65.546242
H    3.553895   50.482071   18.809990
H   39.041172   39.405060   62.805939
H   14.496208   87.096497    1.194705
H   62.639648   96.179291   70.560501
H   90.115425   28.561943   38.245945
H   19.878939   36.075619   68.848251
H    5.508247   93.480888   64.042328
H   71.670654   51.820488   38.291733
H   99.040230   66.635147   84.192780
H   57.770222   29.171898   62.325386
H   87.970886   75.276756   66.044113
H   64.381210    6.672025   48.375164
H   47.007320   22.720848    8.688997
H   63.350189   40.568913   32.281178
H   22.393457   40.935112   35.964493
H   22.598068    5.509465   38.333832
H   22.960665    6.568935   74.036194
H   60.581573   29.074383   10.529783
H   91.407066   55.680840    3.973527
H   73.732155   15.377267   77.377502
H   65.771347   98.439926   90.785622
H   44.259727   46.291416   22.488094
H   22.690060   24.290892    3.331842
H   47.118332   28.329754   41.028374
H   59.763775   14.733985   19.688324
H   22.962420   98.274956   20.368385
H   89.869682   39.139412    9.291809
H   28.390697   30.816084   60.127571
H   30.561934   66.888443   21.708948
H   64.593224   22.795361    9.207541
H   94.042625   21.373280   92.095634
H   18.909580   77.219536   62.557617
H   51.554314   18.058949   87.938499
H   12.708275    4.294801    7.317717
H   81.284653   67.105286   37.606941
H    2.041471   45.261131   58.582909
H   22.213930   98.233086   11.816439
H   12.272054   72.738609   47.983288
H   56.121525   65.074692   96.054977
