100
TIME:    3.566, STEP:  3566
H   76.168365   95.001038   95.881241
H    2.074817   98.086899    2.942203
H   41.051048   30.455822   81.482094
H   82.075150   85.730400   44.698910
H   63.230713   58.588131   69.015793
H   72.725594   97.344780   31.898680
H   66.074608    2.130050   69.318779
H   39.605728   97.106888   80.775902
H   65.968849   43.437088   75.620735
H   77.391685   67.585838   47.331833
H   68.554398    9.728252   96.254555
H   19.735657    2.435966   39.096825
H   16.429478   45.959503   70.696922
H   78.513664   94.084450   28.614239
H   23.877190   51.497665   79.358681
H   58.143494   99.833549   37.032570
H   37.350716   17.834507   98.015396
H   77.344200   21.286263   75.916687
H    0.810391   27.951273   51.231861
H   96.446342   30.088366   59.122490
H   52.665222    1.210051   60.453056
H    4.256241   48.817902   15.600403
H   38.132790   65.620171   30.323765
H   87.721443   79.450256   42.231655
H    2.044219    3.356850   62.875526
H   30.306517   21.355093   54.929062
H   54.579350   94.242142   70.727333
H   31.653444   22.888519   84.644768
H   88.709702   72.627457   88.606056
H   37.728836    2.580981   66.875366
H   56.401363   41.825535   27.248375
H   90.916725   53.984695   69.141579
H   21.541357    7.577112   19.050398
H   28.773911   46.920082   21.520893
H   92.129379   89.357750   41.872292
H   82.608116   64.614410    8.377660
H   21.825142   73.940903   89.452263
H   16.603500   93.689064   74.083473
H   94.549622    3.721506   98.740746
H   27.316425   78.346664   18.599333
H   91.541367   78.541000   26.359114
H   11.129417   71.903625   70.335007
H   41.956882   84.884186   59.048550
H   51.645569   72.536163   29.398840
H   47.331188   91.195801   61.263119
H   32.081341   30.932789   97.647621
H   69.594040   18.769054   59.695122
H   56.429859   32.098602   89.221825
H   69.265366   37.113190    2.223775
H    0.667127   85.015663   34.253521
H   43.272556   25.369457   91.016159
H   78.433884   32.840790   39.961094
H   82.846138   42.685608   95.761299
H   94.114647   49.025536   89.174835
H   56.863174   71.100525   30.677065
H   98.028091    8.783346   71.231750
H   22.321131   86.651115   95.143623
H   60.524406   40.123199   21.703629
H   71.518837   89.440475   37.719334
H   23.699959    1.881682   62.185066
H   84.646431   12.737348   36.362217
H   72.350304   94.750259   34.004372
H   16.155619   63.945732   88.939140
H   87.910393   61.192657   30.323521
H   73.864433   76.034065   27.655481
H   82.280220   64.996407   57.033554
H    1.461202   71.646545   39.229412
H   34.037880   21.480761   36.678020
H   34.631325   93.556320   36.579494
H    2.634029   27.501638   94.224152
H    8.795168   52.769356   19.371674
H   79.933762   33.176666   17.707153
H   74.481491   41.916668   70.317863
H   51.712032   23.715473   91.274925
H   34.103008   33.722301   71.724892
H    9.958154   36.119690   55.982021
H   90.724586   17.469093   54.115849
H   99.517487   17.548120   11.375803
H   32.515335   43.044262   57.470627
H   24.642097   14.741257   13.707037
H   80.659714   66.173569   93.120682
H    8.884870   67.516251   88.590454
H   43.419765   66.780334   69.543793
H   95.485550   17.309227   37.717651
H   78.694473   25.828899    2.068800
H   69.222839   40.039589   89.416962
H    5.319815   44.075676   93.583862
H   13.357553   19.791565   58.657555
H   29.689137   95.623497   99.025520
H   51.056744   62.562798   51.692047
H   69.958008   65.983757    8.769204
H   42.142067   63.688011    1.474436
H   14.041850   34.514923   94.768700
H   91.894905   29.536518   67.254417
H   94.935249   30.309078   98.030693
H   88.458542   54.913582   83.260277
H   79.550201   72.326073   32.105980
H   19.956198   46.600037   98.976967
H   38.837303   52.221920   46.347534
H   60.707508   87.124214   54.216309
