100
TIME:    6.621, STEP:  6621
H   69.571121   14.843304   93.084305
H   17.619884   63.647953   95.580299
H   93.576645   50.244957   45.622753
H   82.587921   59.865326   77.244019
H   35.867355    3.459738   86.183304
H   25.345127   94.035072   34.445827
H    5.964333    8.418476    8.223978
H   99.488747   61.401508    0.274882
H   90.871056   49.711273   83.318779
H   93.916389   11.452141   66.956673
H   84.385742   32.652683    1.981646
H    3.133968   55.567097   21.638870
H   21.567032   61.205341   67.125664
H   27.248283   84.668098   61.102268
H   61.024666   78.612480   32.498692
H   35.308487   32.632240   83.439941
H   91.685585   19.899021   76.124092
H   42.654308   72.661240   70.005898
H   48.388828   56.114136   12.182872
H   14.137314   65.204872   67.121086
H   71.377197   97.075226   77.536415
H   97.142059   52.873459   55.438965
H   97.342308   40.774055   42.916534
H    3.871223   16.034639   15.340107
H   92.779976   61.082634   85.437477
H   16.364069   30.926079   67.807152
H   91.142632   67.251846   31.338507
H   73.880386   65.485603   85.628006
H   55.138252   49.800732   44.193359
H   54.871403   26.970299    9.739342
H   76.634514   15.773759   85.546562
H   83.811310   69.577927   86.324944
H   36.731304   84.058754   94.268921
H   57.854973   66.947586   92.819778
H   16.177933   58.367439   27.878038
H   48.189648    4.013546   98.610023
H   14.839398   62.060181   30.174109
H   90.334770   37.786030   89.667442
H   65.599884   37.155083    2.688570
H   39.569256   92.347244   58.961956
H   82.753448   83.365440   98.333595
H   42.232224   67.567398   17.974205
H   68.267609    3.205314   79.715508
H   56.569248   23.775961   28.102251
H   82.332710   70.659500   22.687273
H   92.660210   89.202286   10.059763
H   93.461227   84.910110   89.019753
H   56.593014   63.564133   78.247894
H   58.565819   84.098732   80.360397
H   64.748291   31.509165   20.591276
H   43.046963   30.429060   23.222034
H   26.905518   49.360458   39.408882
H   46.212536   60.399536   18.330889
H   23.365555   99.172394   23.982338
H   13.620937   38.837723   56.664669
H    1.842207    5.569074   67.232330
H   15.995263   98.500023   85.699577
H   33.041901   51.615929   43.014389
H   12.461783   18.524204    3.189167
H   22.101555   36.700459   75.293602
H   77.358238   70.663101   98.171432
H   63.925697   66.314743   95.773666
H   23.559736   55.478065   79.448608
H   97.691452   77.830490   47.381176
H   95.121017   32.035595   12.153792
H   94.609100   13.123486   37.669037
H   56.353409   77.266235   86.723587
H   23.008171   96.198769   82.724686
H   86.891670   74.043503   44.975742
H   64.521935   81.159599   87.791199
H   11.785398   44.908600   82.726173
H   28.035692   31.787033   41.380585
H   75.289459   90.805237   91.984680
H   84.454781   30.376659    9.756548
H   81.395500   38.080860    3.314352
H   82.182671   31.916374   50.419479
H   68.110931   52.737064    8.166037
H   43.046947   17.788900   80.093163
H   79.013496   34.070759   91.551094
H   74.825089   48.342720   50.516075
H   40.435486   97.778946   75.710861
H   38.131485   87.408966   33.091892
H   36.668434   17.844519   60.494865
H    5.664330   78.732323   58.690166
H   29.941923   34.737938    5.920715
H   98.905624   52.255844    1.565417
H    9.356417   21.952156   39.258263
H   62.512901   75.255432   26.928368
H   93.086777   25.525293   74.039558
H   80.953659   36.870502   60.899544
H   94.981224   30.947186   73.285202
H   68.185852   93.442169   59.679321
H    9.872333   26.181995   31.016672
H   87.160988   14.861205   73.242874
H   42.119774   56.661621   68.229797
H   40.789062   34.274872   25.465881
H   37.058159   47.645218   56.409653
H   25.497263   14.066693   45.964340
H   93.304039   65.393288   90.458656
H   50.465992    8.729752   59.919422
