100
TIME:    2.500, STEP:  2500
H   48.257233   92.758659   96.857193
H   31.728249   40.290932   35.699177
H   22.727545   53.763840   93.990547
H   81.896225   29.650988    3.128901
H   72.778778   73.143539   97.920242
H   89.251717   98.499657   26.328974
H   21.945827   30.149551   85.956108
H   23.391228    4.884413   78.652626
H   92.173164   45.928635   42.721165
H    6.522943   52.279655    5.585541
H   67.711121   66.835464   98.937164
H   60.424728   49.002670   14.976385
H   84.237114   10.453979   76.648857
H   31.295799   97.370155   47.491856
H   10.909225   46.716949   30.599104
H    1.004138   93.069855   25.519979
H   23.071167   47.325996    0.972515
H   54.568619   73.125587   12.874161
H   84.203178   83.231491   95.073120
H   25.164734   52.722668   86.544289
H   15.923080    7.333858   89.389038
H    2.057785   47.402771    6.380161
H   52.365425   74.289879   60.822495
H   86.764404   66.665283   21.401749
H   40.168938   87.901001   55.007156
H   35.195820   53.115566   54.846123
H   46.501328   38.555096   49.576160
H   21.599451   73.131264   49.409527
H   65.530838   75.911629   38.995262
H   96.855141   28.965256   82.131645
H   14.446233   46.234554   11.587551
H   23.608559   83.439415   67.826546
H   46.454609   85.570686   23.016699
H   83.731834   44.612625   66.430008
H   18.628357   69.939270   76.960442
H   89.919388   80.872978   12.045930
H   19.581875   12.980295    5.455575
H   60.659607   13.196957   98.860420
H   39.547577   26.945101    2.044017
H   27.721708   78.142006   34.728764
H   64.392235   41.963963    1.243714
H    6.935444   24.058914   20.253351
H   32.774799   78.491699   82.050743
H   19.717173   54.671989   25.171061
H   39.799091   33.253643   70.042702
H   45.834133   10.600452   93.320900
H   61.263248   60.796295   49.455757
H   56.372929   21.123171   23.263725
H   38.106720   25.399578   44.748680
H   78.317589   68.798592    8.812138
H   43.353886   28.284971   79.776443
H   26.627516   31.757492    9.940723
H   60.739624   36.504578   57.674698
H   18.800045   66.420753   42.133942
H   41.735687   77.668915   21.619215
H   96.694290    9.904570    7.520905
H   54.739773   17.410866   93.758156
H   39.901459   40.793716   49.161942
H   87.446724   44.400280   19.556505
H   94.045181   19.945944   92.504646
H   17.402445   62.308453   19.476582
H   10.183620    4.673384   82.237732
H   43.806454   36.672462   62.048508
H   14.709463   55.393875   59.268635
H   31.550713   61.174229   28.380983
H   47.766212   17.990486   94.004860
H   86.988533   34.794529   87.761795
H    7.673681   60.514954   85.717056
H   81.502190   70.152275    3.435887
H   81.033508   73.886787   96.468842
H   42.646797   25.299864   32.160763
H   67.829773   68.554932   39.660034
H   43.987335   94.647209   97.644524
H   75.173882   91.174393   54.626122
H   82.706200   32.201443   90.914536
H   84.759666   67.800529   27.711658
H   93.938568    9.863134   35.263706
H   49.434872   87.251945   52.506756
H   81.396362   46.175442   45.572144
H   76.920601   72.799835    5.544004
H   59.805233   55.145306   29.407440
H   28.901321   60.554459   77.728859
H   75.976700   48.985474   68.012543
H   22.147388   26.089815   35.082428
H   30.600750   92.507355    5.405513
H   93.751770    0.882707   15.390971
H   34.124077   21.582565   42.753021
H   96.200226    5.138474   69.746956
H    7.564225   54.975975    7.746684
H   45.305164    6.417038   13.587413
H   26.332947    8.425035   86.257156
H   63.265690   83.523735   81.158562
H   45.688480    2.542864   12.321854
H   88.862099   64.877739   95.381081
H   13.367016   25.794716   73.534294
H    0.411304   97.009651   38.320831
H   64.164078   11.150304   93.412041
H   16.044256   37.523682   16.034157
H   89.619347   47.626812   35.636940
H   94.499741   14.488752   56.900055
