100
TIME:    6.479, STEP:  6479
H   79.174149   27.864943   93.214310
H   21.541157   55.952747   86.627296
H   91.134720   40.028740   47.290066
H   82.564087   65.715546   85.026978
H   37.139236   92.077850   90.033615
H   27.547626   94.188911   20.382996
H   13.406337   98.829796   97.119316
H   10.649673   49.117130   13.313018
H   94.361687   63.363953   92.256615
H   97.794868    9.412960   61.396793
H   97.594238   26.938971   15.659775
H    8.554077   48.449329   31.746208
H   30.628372   69.792519   81.235527
H   34.279015   85.105782   50.295612
H   59.299934   91.296623   39.327198
H   41.017868   45.052040   95.227051
H    3.104399   10.507092   63.197273
H   39.617611   79.570999   74.928749
H   46.177662   50.156662    4.702114
H   17.962708   68.220985   57.453056
H   79.803680   11.211895   81.391060
H   83.528381   52.684952   67.531586
H   99.238213   41.928932   46.979187
H   17.065094   14.335909   25.886229
H   97.858833   72.343506   84.388771
H   17.011385   35.124153   81.160820
H    3.387089   73.154068   28.520651
H   85.862503   58.857521   80.934830
H   52.050636   36.917248   50.905945
H   49.426365   30.484764   98.450974
H   71.046471    3.040545   96.781151
H   74.845306   73.501907   99.470604
H   26.728798   94.448311   81.476440
H   51.855247   79.961075   98.802170
H   19.711899   69.118843   19.238131
H   35.845684   92.891502   99.056374
H    1.219830   67.260376   18.985022
H   96.204491   40.385044   79.646233
H   71.593109   40.249199   16.449091
H   52.943508    5.640585   47.789120
H   92.458313   78.492424   94.988136
H   54.199173   67.010544   10.724809
H   67.045563    2.353444   69.458122
H   65.636200   21.392538   14.218307
H   94.650673   76.262711   10.535609
H   94.493279   86.493851    9.482866
H   92.351852   77.187820   87.656868
H   56.585430   62.101578   69.461731
H   54.415413   95.859840   86.024277
H   61.767658   29.347292   30.519857
H   43.056713   44.138138   21.725353
H   20.002800   62.537537   48.730232
H   43.266842   59.576172   26.578074
H   26.653595    1.489184   17.716644
H   24.927570   26.393250   55.456707
H    1.665346    5.718444   72.066345
H    6.993238    2.597473   72.194237
H   43.615631   65.025932   46.671860
H    1.262677   12.523553   14.090292
H   31.471657   25.785465   79.332420
H   68.400902   77.267349    9.242826
H   68.965553   67.636459    2.198386
H   13.919333   65.167763   89.185974
H   87.941086   77.056961   51.236904
H   89.485306   43.377438   98.929634
H    3.332243   20.182640   29.272886
H   67.746170   72.356384   79.867996
H   32.817039   88.077797   75.936264
H   79.815071   84.246719   53.882160
H   61.645378   74.017998   88.090210
H   16.294689   54.570129   84.429237
H   39.743900   36.499710   30.983498
H   84.547974   97.829834   95.624817
H   87.581398   39.363346   18.193323
H   74.548576   37.878269   92.549820
H   78.826378   22.815491   59.973755
H   55.214443   65.027855    5.647607
H   36.375530   27.073957   72.251701
H   72.203407   34.487858   89.967201
H   81.789017   56.078011   62.749535
H   37.656631   96.309891   67.223709
H   27.476271   86.488098   44.971088
H   27.686180   15.469823   46.971107
H   95.894783   66.581200   71.659874
H   36.856178   43.620522   19.685867
H    2.173715   47.039398   91.704514
H   99.872475   32.276711   32.487175
H   60.229149   86.617859   28.400673
H   90.139999   33.431313   75.200935
H   93.507797   42.713139   55.823936
H   89.170006   23.279606   70.286423
H   57.679287   82.762268   56.974136
H    0.769991   21.921085   20.035593
H   73.436806    6.246485   63.668015
H   44.574699   69.381058   64.966675
H   29.060455   39.882416   32.800323
H   48.329582   39.496078   64.576126
H   25.771357    7.040490   48.814697
H    0.068626   64.780098    2.352144
H   41.646244   12.373680   73.598427
