100
TIME:    7.270, STEP:  7270
H   25.681585   55.326942   92.490128
H   99.697769   98.813393   36.501873
H    4.735432   96.937386   38.002430
H   82.696854   33.127350   41.669498
H   30.053492   55.479900   68.585754
H   15.278863   93.331963   98.718277
H   71.948227   52.243786   58.976620
H   48.478630   17.549770   40.686852
H   74.917397   87.312454   42.466480
H   76.190102   20.771425   92.367653
H   24.017334   58.766773   39.466324
H   78.366074   88.098297   75.442665
H   80.165901   21.941898    2.634364
H   95.114708   82.667702   10.489620
H   68.907417   20.640587    1.289398
H    9.212040   75.868164   29.567759
H   39.497017   62.823376   35.205135
H   56.533298   41.080719   47.510017
H   58.494793   83.338791   46.372822
H   96.652695   51.424480   11.307962
H   32.864609   32.465935   59.920208
H   59.362320   53.735016    0.170649
H   88.677223   35.495781   24.347475
H   43.570274   23.798555   67.141342
H   69.567451    9.612030   90.230507
H   13.328640   11.782318    6.742955
H   35.178486   40.271843   44.217297
H   19.120525   95.778740    7.079029
H   69.249962    8.683495   13.515501
H   79.757523   10.907314   61.332664
H    2.174532   73.970001   34.199745
H   24.789364   51.647091   26.243721
H   82.446297   36.574089   52.735970
H   85.276253    7.470616   65.477722
H    0.025281    9.228981   67.365646
H    4.606630   54.846527   96.570015
H   77.086136   38.293091   81.312958
H   63.507759   25.907436   35.464882
H   38.203648   23.015238   39.794998
H   78.440254   31.589994   10.022565
H   38.398117    5.636048   13.622719
H   87.537865   70.112457   51.105587
H   73.852875    7.098476   26.593708
H   15.130310   34.669212   91.557732
H   26.037495   45.054127   78.223457
H   84.282310    1.580719   12.696424
H   98.531540   20.205540   95.248711
H   56.631344   70.248627   18.403912
H   77.538460   30.348598   54.472252
H   78.374756   41.387486   75.214485
H   43.002399   67.771927   30.062500
H   58.450695   89.136673   96.806366
H   59.675602   64.162659   80.639015
H    8.337822   88.586136   52.620987
H   61.946762   95.712578   62.185566
H    2.650535    4.886389   45.138840
H   57.137089   79.773537   47.424995
H   84.716721   90.325325   26.297358
H   63.645287   45.950436   53.367348
H   79.273369   86.584351   56.834496
H   18.297674   40.482758   47.568947
H   40.891426   60.273941   66.411407
H   67.622047   11.191026   34.944733
H   42.257771   81.365845   29.758869
H   20.880798   80.201904   72.592339
H   54.739807   80.860161   76.042984
H    4.282403   99.706329   18.057840
H   78.177055   33.317070   13.750640
H   19.237167   27.410492    4.270007
H   77.674690   13.798693   86.424042
H   91.176445    0.750904   74.942451
H   74.600060   10.207017   88.934456
H   32.974136   58.707310   75.347717
H   70.164818   89.301147   71.194946
H   12.674779   39.019871   52.517948
H   97.522346   73.512596    6.751215
H   27.054195   96.562935   19.675745
H   73.538147   75.353615   15.933705
H   10.137155   32.164440   98.790154
H   42.996994   12.987948   94.604286
H   53.137123    4.493844   14.500806
H   86.831581   91.617722   78.795631
H   77.719475   28.698156   22.300964
H   50.313259   34.269161   99.415733
H   98.341049   94.139610   43.007347
H   83.971970   76.094696   46.634140
H   52.701649   74.764244   70.204994
H   72.950615   23.320875   20.199310
H    6.555697   89.390648   68.731575
H   23.572817   10.167187   84.101501
H   21.541096   65.989143   86.990891
H   16.205278   42.252518   72.046379
H   51.474461   45.656155   81.204842
H   49.883385   54.235313   17.003687
H   30.899483   98.526535   83.143646
H   94.393753    8.647927   91.943794
H   85.544151   84.890228   19.084560
H   24.244539   46.178402   32.937004
H   62.387016   68.195824   36.098797
H   90.779259   92.074570   97.397583
