100
TIME:    0.087, STEP:    87
H   11.439181   14.042888   99.066360
H   98.850121    9.461758   83.488464
H   81.259216   80.163063   22.318344
H   81.491211   29.066431   35.394379
H   94.391800   79.730957   63.346352
H   26.667248    1.118963   87.361382
H   48.410114   67.213509   97.255997
H   13.048269   96.129150    0.205303
H   51.489372   77.928650   94.610313
H   72.463036   17.636364   11.095522
H   92.162506   69.743164   31.369511
H   52.521366   28.051353   86.736610
H   37.728333   56.443787   16.482052
H   50.774326    4.809026   63.862068
H   81.561180   62.249985   46.591053
H   98.024353    4.128196   25.818287
H   17.071402   87.750557   81.275948
H    3.003928   90.469711   96.530075
H   46.619026   82.003342   67.944687
H   90.294380    3.708166   22.123331
H   59.113846   47.556778   54.879906
H   70.689919   44.214767   11.847393
H   84.582451   93.914650   29.861897
H   10.958332   37.725193    0.612724
H   26.471121   79.273308   37.200699
H   46.255466   25.021740   81.016075
H   54.577328   38.860760    1.692760
H   25.199799   60.500042   69.651901
H   13.062852   56.985195   53.059509
H    4.330019   88.686417   90.305199
H   19.524080   29.843988    2.527584
H   71.250610   50.106445   91.210075
H   76.486633   62.116844    5.634602
H   81.778038   65.749664   68.086220
H   78.609306   52.343674   30.026245
H   80.119347   91.320122   20.344976
H   88.144432    1.348060   15.319838
H   60.392479   57.361897   28.580843
H   46.809872   78.650795   33.788261
H   54.998371    4.038109   44.879303
H   29.296169   59.164059   44.387859
H   23.802109   15.761120    6.887734
H   11.991105   64.021652    7.757691
H   73.804077   14.229859   89.237930
H   49.108398   28.459328   63.552391
H   76.840309   64.839653   83.659462
H   36.998707   30.433788   28.366644
H   56.244061   96.277710   73.961014
H   67.570366   25.243946   41.003929
H   27.714453   32.073589   77.579605
H   43.533230   61.245575   54.342426
H    9.361402   55.666626   68.351669
H   10.684061   22.513184   97.816719
H   74.670059    5.782795   35.654804
H   33.833603   66.132614    1.144417
H   93.675095   12.440922   89.665115
H    1.768098   87.036461   64.261864
H   19.581686   68.670448   11.314034
H   97.139275   42.444992    4.804015
H   53.281242   34.475037   61.126877
H   65.188766   74.524033    7.613202
H   95.823334   27.135574   91.417709
H   80.134575    1.220355   27.589569
H   49.013908   42.267738   24.778746
H   35.774704   53.896328    3.662956
H   96.000954   37.948139   51.329983
H   80.588249   51.369244   71.262619
H   74.356041   22.512962   70.361702
H   61.240112   43.535057   54.777058
H   32.149261   52.520378    1.547817
H   19.270182   89.484779   61.103977
H   66.792503   48.638176   62.992550
H    1.318725   14.003857   59.518856
H   28.276024   43.874561   98.037941
H   66.364792   28.767488    7.992938
H   27.714621   13.148050   90.075790
H   74.854584   19.003574   92.571350
H   36.067749   45.031467   19.244637
H   65.724617   53.245121   18.658535
H   95.258804    4.215560   13.425955
H   12.584612   30.181044   85.188583
H   47.851826   44.795731   79.505676
H   23.300751    8.709477   38.186096
H   56.155533   19.606297   55.483711
H   48.094749   43.443466   39.318520
H   49.296146   12.244849   47.826389
H   72.965248   97.027306   27.691692
H   57.355698   98.328758   94.833763
H   57.488716   89.328499   27.489223
H   58.642952    5.707458   27.321936
H   27.582979   78.128586   35.299023
H   84.723747    2.049958   35.182602
H   90.866417   30.238279   25.645399
H   55.637405   18.509386   32.684978
H   55.087574   41.937061   18.086502
H    1.107403   92.296074   62.955254
H   55.696587   72.673164   32.185448
H    7.184810   16.978424   54.643166
H    4.567587   37.225315   37.764080
H   44.644512   76.468117   89.306503
