200
TIME:    0.694, STEP:   694
H   23.421591   60.968266   23.102695
H   32.010803   39.506042    8.328050
H    8.622254   89.009659   67.710136
H   33.146133   82.280220   32.627708
H   10.389909   95.235809   47.131073
H   74.849182   40.492722   52.111633
H    9.936873   54.982002   58.438885
H   13.062512    8.490455    8.957446
H    5.865647   80.699966   36.644093
H   94.879562   68.539452   78.164894
H   28.017900    4.292445    7.308495
H   32.655151   54.140755   34.374390
H   22.317043    2.075381   42.684441
H   82.945427   55.122387   64.142815
H   97.702774   75.439507   41.861534
H   16.067150    7.260410   44.529266
H    5.564431   28.981564   93.389381
H   25.781773    4.992389   35.437717
H   80.130814   13.265652   49.167130
H   91.500633   73.469933   19.871433
H   63.533546   99.421539    5.040913
H   79.921822   66.167732   53.079315
H   81.410011   59.240509   38.242729
H   18.224453   92.198357   90.162483
H   22.979645   30.963179   29.210415
H   18.285276   82.484741   91.961998
H    7.687726   67.906410   67.335800
H    4.929669   88.857903    1.925879
H   30.190197   42.730171   35.679939
H   72.533661   32.926487   82.921280
H   12.768759   70.416725   16.749878
H   23.670216   74.146957    4.780871
H   16.153618   18.754477   78.724609
H   81.400826   64.073235   46.225739
H   26.201250   71.041367   30.765425
H   18.231232   39.570549   84.682487
H   99.295074   64.630066   89.363258
H   10.458438   56.499142   94.754929
H   36.267624   30.143627   54.523254
H   85.728821   37.821529   45.962006
H   80.639397   84.015472   16.593628
H   35.936783   33.586784   26.368931
H   68.527420   77.352592   67.186333
H   36.269852   85.284096   34.985348
H   44.289207   90.146667   60.747429
H   34.670914    2.023211   47.625446
H   88.529602    3.969547    6.132870
H   79.063011   65.543678   31.326492
H    4.638149   11.523607   61.493656
H   45.870701   19.850309   86.505630
H   67.408279   64.749763    9.876456
H    3.783327   43.512188   73.302559
H   64.421593   81.437996   13.861702
H   15.649670   91.764420   88.426292
H   57.982040   66.288116   76.090538
H   99.485771   61.165184   93.514618
H    4.134827   18.463478   44.784565
H   72.368759   69.133423   97.108910
H   18.601309   83.247665   18.106907
H   32.602947   93.439857   58.601578
H   48.949158    6.518744   28.971893
H   98.096123   17.500376   52.546593
H   83.954895   34.611160   69.568237
H   35.126274   65.800056   13.804062
H   78.646484   82.847229   36.494617
H   20.930315   34.199272   41.023880
H   69.216652   13.585488   95.214943
H   94.799034   92.482124   96.259972
H   32.671295   11.988406   56.233452
H   42.623569   49.542912   50.958347
H   58.265999   84.444443   85.425232
H   19.380928   11.888515   41.586842
H   91.902969   33.511944   84.293381
H   22.656183   98.985481   73.789833
H   84.673172    8.220782   46.265656
H   64.789146    3.048405   59.910774
H   93.508667   46.851540   65.723793
H    9.739786   14.237032   32.443031
H   14.982180   49.920105   24.883186
H   61.434544   88.134949   72.730988
H   62.636913   22.428988   94.393433
H   46.599522   60.425442   73.822136
H    9.228440   18.646299   76.996254
H    9.869154   76.705208    8.648303
H   22.741188    4.124704   44.916115
H   37.457588   69.889587   18.331993
H   56.202988    3.730145    2.812167
H   71.556007    1.646975   28.566078
H   79.581924   73.162231   78.805786
H   21.170181    6.397065   49.870785
H   22.211720   38.812023   78.735123
H   80.893028   92.518768    8.273991
H   68.827087   11.741817   82.799667
H   39.669704   78.122871   81.570686
H   36.628517   50.784981   86.848366
H   50.470863   37.859802    7.715626
H   85.464134   98.576042   17.881783
H   94.414345   35.493065   52.892078
H   26.730583   65.230133   54.490158
H   75.098305    5.304372   27.361246
H   30.122099   92.979004   90.318031
H    7.454031   83.525177   63.360313
H   32.590393   20.578016   36.846897
H   43.690971   68.777710    8.191573
H   24.736914   21.506432   39.806721
H    5.396795    4.545164   22.635115
H   87.164696   35.734028   54.146347
H   62.075939   51.705673    1.186183
H   84.334297   34.358887   21.085804
H   18.950830   21.730394    7.759257
H   53.167770   92.121574    1.115273
H    4.223371   74.761902   95.682533
H   49.208824   85.543015   84.060234
H   61.686272    9.609669   63.246635
H   48.699837    0.873665   10.854012
H   95.510612   92.516579   99.415512
H   13.908769   14.835485   89.472702
H   38.467724   49.342831   24.903496
H   36.103790   74.758698   61.101742
H   82.763725   55.736019   66.278976
H   45.292976   24.776356   72.643044
H   98.700089   16.725101   61.542633
H   43.181831    2.674690   37.497410
H   97.388504   50.981720   97.983818
H   63.331566   97.711433   77.797798
H   64.355247   74.773651   16.765512
H   84.101753   51.309738   53.521286
H   65.498116   91.130699   38.836941
H   98.054741   36.049931   74.544060
H   89.750366   21.997494   74.236153
H   66.935631   68.975372   20.761242
H   64.273903   90.554245   20.033421
H   90.955269    4.682852    0.752551
H   78.659073   24.643055   55.294704
H   26.854023   93.161072   35.554749
H   50.266144    1.044183   76.993111
H   69.644348   87.721413   77.939598
H   95.090813   50.045574   76.024956
H   58.180023   50.682678   71.442711
H   43.693871   87.316277   82.842529
H   73.093903   49.717659   29.575409
H   36.338058   54.805191   56.830364
H   40.411011   65.117043   84.071030
H   36.909828   10.093653   85.647682
H   61.642071   54.710175   63.914158
H   62.574768   69.797318    8.102509
H   55.468864   94.789604   44.031170
H   30.255699   56.519081   66.220238
H   77.322235   45.837006   93.431198
H   23.934177   93.631416   73.007263
H   60.218132   69.020248   47.916821
H   52.898582   94.547279   33.924995
H   97.266495   14.862774   87.527557
H   21.911121   11.563713   64.733452
H   31.615353   65.869064   68.966438
H   76.979530   44.654621   68.029007
H   64.063522   74.499176   86.131516
H   52.500755   29.375641   20.360428
H   91.602974    0.023687   85.767845
H   58.589703   38.419708   95.663712
H   58.415520   65.964943   71.344734
H   22.287825   20.703552   31.610893
H   84.761803   14.775620   37.043278
H   27.939501   33.516811   51.775200
H   54.607185   37.493370   14.285416
H   19.735699   49.993748   59.820049
H   67.082161   90.223824   57.034573
H   24.028812   51.588608   66.786209
H    0.241938   26.693789   35.784904
H   47.191345    7.033637   85.290863
H   70.691772   11.032931   35.937973
H   30.479017   48.584015   58.852272
H   46.444878   57.945889   77.649734
H   65.635452   63.678864   84.772522
H   50.336731   91.621292   77.884361
H   14.924315   50.113182   23.722328
H   30.753811   67.103836    5.899162
H    5.753730    9.633827   70.685440
H   63.991093   10.825320   63.824978
H   64.704079   59.325127   92.789467
H   73.129074    1.458713   31.163605
H   28.384943   30.660244   86.190186
H   44.731174   89.688492   15.061462
H   61.367897   26.060444   93.892464
H   91.394012   68.642990   76.526413
H    8.764727   40.054672   86.226418
H   47.160522   96.748131    9.324709
H   68.609848   86.455269   41.412659
H   93.470436   63.197964   71.732101
H   57.869408   55.803661   71.438980
H   69.508072   16.003815   76.059395
H   43.931122   97.267059   18.841665
H   14.184815   28.324848   68.206810
H   27.172117   81.649979   42.462765
H   69.314682   33.976841   20.331203
H   76.436539   11.497473   23.346352
H   12.479068   97.938835   18.790388
H   15.715210   88.383125   34.162979
H    5.859117   12.882223   57.712593
H    3.272563   19.611282   91.441315
