100
TIME:    8.504, STEP:  8504
H   42.230949   42.163658   91.360367
H   65.616653   65.684982   14.309012
H   25.946871   85.716080   23.516006
H   82.903976   82.285149   74.030464
H   18.995958   54.390354   35.126007
H   96.142578   91.995079   20.925270
H    7.276187   35.568954   55.477039
H   51.488663   24.306215   27.384583
H   44.583321   68.667725   64.792130
H   42.485573   38.489841   40.686714
H    9.233658    8.419509   20.601530
H   31.267334   49.952099   87.605385
H    1.477709   47.250267   80.002701
H   34.013481   78.864174    4.397351
H   83.895576   10.413620   41.942986
H   59.595978   67.938011   27.134815
H   40.265999   44.443684   47.541023
H   82.915878   81.034416    4.736686
H   77.716858   35.106869   11.386462
H   63.400242   25.222227   95.324501
H   59.637306    9.616680   26.431433
H   77.667107   55.373169   95.084152
H   72.201546   25.462809   89.040268
H   28.913351   38.560760   75.493668
H   25.432167   11.749962   99.343910
H    7.510071   75.405563   90.617828
H   28.769163   88.975662   68.703049
H   14.999163   53.377674   47.870445
H   96.081779   20.641405   55.183128
H   27.073723   80.365280   59.432098
H   50.742588   84.625710   36.569664
H    2.705145   17.556561   12.006157
H   69.368179   46.288948   63.904434
H   37.416885   94.381927   13.491575
H   69.314613   15.797844   42.443157
H   11.875902   51.501038   92.691170
H   95.443504   93.099373   78.547325
H   12.506838    3.322940   22.545197
H   86.115349   96.130943   20.211487
H   62.210762   16.067087    7.111184
H   54.063156   47.973900   42.695034
H   83.543030   74.951599   14.105477
H   84.472626   14.500763   15.726641
H   36.334736   55.385040   12.211261
H   18.997124   96.371513   83.821220
H   68.352684   25.112961   17.709738
H    8.177411   87.314156    7.096655
H   56.706661   82.958435   94.756905
H   13.612183   28.148941    5.244972
H    4.282763   60.169758   88.932854
H   42.917667   48.637398   43.072876
H   18.423140   74.631409   15.801585
H   85.266273   71.317810    8.973013
H   79.757629   68.457565    7.074854
H   63.693794    3.854280   72.675140
H    4.187481    3.588341    3.130569
H   35.368393   44.167244   64.788612
H   92.830750   73.789284   94.510643
H   60.968502   98.092155   58.634781
H   97.843391   81.434036   21.736595
H   96.139023   83.095581   51.356503
H   97.094322   48.788040   10.574966
H   51.397877   26.985590   50.325653
H   26.993851   88.087921   96.253952
H   69.863144   81.643951   87.509140
H   78.934822   19.514153   49.007206
H    5.276287   42.367138   77.634995
H   92.936172    3.889683   72.742981
H   80.740662   38.743126   26.876465
H    2.736614   75.777359   83.806763
H   51.989689   16.788116   60.142586
H   72.982880   69.233788   79.385300
H   52.514664   97.669304   43.708248
H   43.001354   11.202133   97.875404
H   72.117493   40.836903   46.080585
H   26.696573   52.600319   23.718401
H   39.127762   89.757324   41.562210
H   31.510660   94.669060   84.089294
H   69.309456   28.539791   12.560884
H   82.481468   45.766594   88.294090
H   77.295174   17.260141   88.255402
H   79.429123   99.620193   75.558784
H   55.772194   49.335117   39.821362
H   35.211128   39.865211   86.708366
H   38.256607   16.945034   23.385799
H   55.574520   21.419159   32.326904
H   35.117786   85.042076   29.046822
H   92.796745   24.575268    7.404715
H   32.168217   20.683142   58.639046
H   14.470691   59.400528   28.214998
H   72.041405   32.622128   13.051047
H    7.508783   35.061066   95.564232
H   30.576176   82.679314   76.631958
H   69.143478   29.100697    0.210496
H    9.561127   87.992905   11.499681
H   96.317093   59.918152   28.206459
H   87.595055   55.705803   48.116020
H   21.862627    7.238553    8.162470
H    3.602208   73.524529   32.738400
H   67.426132   60.404682   78.523148
