100
TIME:    6.276, STEP:  6276
H   92.902420   46.480949   93.400162
H   27.146919   44.951855   73.828285
H   87.643799   25.424213   49.673618
H   82.530014   74.078888   96.153320
H   38.957489   75.806503   95.537933
H   30.696270   94.408836    0.279206
H   24.045498   85.123207   81.244453
H   26.605072   31.555660   31.952374
H   99.351814   82.881516    5.034398
H    3.339907    6.497893   53.448521
H   16.476791   18.770773   35.213608
H   16.302559   38.273930   46.196190
H   43.582260   82.068047    1.406670
H   44.330513   85.731483   34.846661
H   56.834297    9.429565   49.089077
H   49.179871   62.807106   12.078002
H   19.428658   97.080208   44.717384
H   35.276417   89.449036   81.966347
H   43.016628   41.639992   94.006958
H   23.431404   72.532753   43.631859
H   91.849991   31.421757   86.901573
H   64.066574   52.415466   84.818924
H    1.948739   43.579918   52.787064
H   35.926914   11.907442   40.963161
H    5.119140   88.441391   82.889565
H   17.936773   41.125626    0.250907
H   20.892033   81.591751   24.492308
H    2.991662   49.382164   74.225571
H   47.636650   18.499878   60.502106
H   41.642262   35.508965   82.312820
H   63.057747   84.836510   12.841789
H   62.027714   79.111542   18.263268
H   12.429708    9.300600   63.188599
H   43.278175   98.564865    7.353926
H   24.763977   84.488808    6.886981
H   18.199636   76.991859   99.694466
H   81.748787   74.694458    2.989665
H    4.595108   44.100536   65.320137
H   80.160889   44.672478   36.120918
H   72.063690   24.644943   31.816694
H    6.331901   71.526070   90.205544
H   71.306854   66.214478    0.361350
H   65.298553    1.135663   54.795364
H   78.599380   17.985250   94.370079
H   12.259609   84.272934   93.164169
H   97.113792   82.621933    8.658148
H   90.765915   66.148209   85.708519
H   56.574589   60.010742   56.901234
H   48.482086   12.672150   94.121231
H   57.507000   26.256727   44.714226
H   43.070652   63.736237   19.585732
H   10.135061   81.373764   62.055824
H   39.055744   58.399109   38.368481
H   31.354103    4.801610    8.759349
H   41.090843    8.603175   53.729832
H    1.412510    5.931980   78.976944
H   94.123619    8.455274   52.887306
H   58.731598   84.196571   51.900497
H   85.251617    3.945319   29.674034
H   44.866943   10.181638   85.106224
H   55.595692   86.708633   25.069843
H   76.170418   69.525955   11.383840
H    0.137544   79.019936    3.106293
H   74.002182   75.951141   56.748966
H   81.428619   59.591480   80.025383
H   15.802147   30.274406   17.269941
H   84.033005   65.337372   70.067398
H   46.839577   76.468239   66.231689
H   69.698524   98.833008   66.614258
H   57.533401   63.808495   88.517670
H   22.741432   68.382034   86.863899
H   56.481426   43.236847   16.120754
H   97.783737    7.870819    0.828909
H   92.051140   52.210369   30.254347
H   64.760368   37.588650   77.161270
H   74.028297    9.805073   73.633423
H   36.777920   82.597069    2.047305
H   26.838223   40.348152   61.041313
H   62.468098   35.084133   87.702904
H   91.744492   67.136208   80.238213
H   33.684044   94.209763   55.090672
H   12.243467   85.171646   61.953320
H   14.845353   12.075313   27.637848
H   81.928001   49.210228   90.201714
H   46.740410   56.318863   39.364502
H    6.846152   39.582085   77.607635
H   86.314568   47.036461   22.807379
H   56.964348    2.861464   30.505447
H   85.927353   44.734215   76.861214
H   11.455634   51.065639   48.567963
H   80.862419   12.318207   65.999435
H   42.659344   67.494522   53.106865
H   87.757263   15.829785    4.337291
H   53.817829   93.930855   49.980011
H   48.084206   87.563583   60.301792
H   12.293502   47.898834   43.285477
H   64.442955   27.846529   76.250732
H   26.163195   96.995834   52.889503
H    9.738898   63.903667   19.356049
H   29.037729   17.582958   93.153160
