100
TIME:    9.749, STEP:  9749
H   58.036774   27.991783   90.220535
H   31.231842   33.148251   92.810356
H   47.347210   75.286171    8.901262
H   83.112946   30.992636    5.785955
H    7.839857   54.182327    1.371282
H   76.841431   90.646278   44.222130
H   42.024693   19.636927   52.837673
H   53.634125   32.014263   13.072357
H   13.978844   48.965393   86.422798
H    8.477312   56.366199   89.433510
H   93.426727   58.513229    0.674184
H   83.749107   12.357374   98.985100
H   22.088409   71.893867   56.278336
H   72.369446   75.026741   99.142326
H   99.017342   99.204102   82.070335
H    9.536243   59.045761   23.788746
H   40.150490   26.791542   60.878281
H    9.543769   20.452370   61.576294
H   97.112991   87.335403   76.981720
H   29.860699   98.782684   80.089867
H   85.756744   85.674324   92.638046
H   97.026474   57.025925   89.060898
H   55.579002   15.341900   53.420532
H   13.234837   53.454559   83.029083
H   80.904648   13.015511    8.534336
H    1.637325   38.702988   73.458183
H   21.411442   37.222393   93.399399
H    9.949739   11.490071   89.022087
H   23.153912   33.597202   96.332260
H   74.813179   49.551834   58.406013
H   99.738914   96.267853   38.069244
H   81.315201   83.156662   96.750343
H   57.064964   55.198990   76.063866
H   90.020111   80.285057   61.041405
H   38.330193   21.533852   18.189535
H   20.101141   49.018085   88.777748
H   14.855290   47.506111   76.648453
H   61.045689   80.544182   10.401717
H   33.563610   69.002953   99.562340
H   44.946400   99.513443    5.065262
H   68.976410   90.695023   72.026695
H   78.621040   79.836533   77.658195
H   95.187042   21.970932    5.653812
H   56.845371   76.285866   33.938602
H   10.989569   47.239384   90.354630
H   52.287987   48.858074   22.767740
H   17.911564   55.025654   19.052317
H   56.782650   95.781540   71.790054
H   50.001305   25.038296   55.583992
H   30.414465   79.127037    1.882282
H   45.565922   28.646095   51.998901
H   78.930267   59.105064   34.075111
H   11.086445   78.536743   36.665627
H   50.924202   48.142151   62.012581
H   64.565010   12.960267   83.256577
H    5.738127    2.278722   60.747818
H   14.296961    8.243040   83.198418
H    0.125683   56.214439   62.443382
H   59.163509   50.701820   63.055576
H   15.686113   77.129166   86.325844
H   74.678741   25.197947   54.293858
H   52.906853   37.199753   54.245338
H   35.933491   42.050217   64.962143
H   12.485971   94.869919   62.457512
H   19.276730   82.206612    3.450167
H    2.453625   57.621910   22.621820
H    5.387573   85.410004   37.744518
H    6.935632   75.092964   32.261185
H   42.791550   49.285370   48.793346
H   28.022095   38.310902   81.166153
H   12.449169   32.074749   45.210793
H   70.459831   27.895897   70.642487
H   71.339310   36.084713   11.783466
H   15.597904   32.406376   23.900858
H   32.089104   42.670132   40.477253
H   56.132721   32.391865   39.945221
H   52.200142   81.999680   63.646446
H   89.997780   13.266090   52.851967
H   29.013533   24.882832   26.456743
H   21.425316   77.944801   81.036232
H    1.668424   30.140238   62.667885
H   72.852135    7.701919   71.401634
H   34.518890   70.156044   58.389370
H   20.865116   46.402542   72.996269
H   77.636566   39.061195    2.698142
H   26.917255   67.153145   18.783543
H   18.268587   94.520119   88.413048
H   12.818649   24.952765   94.500168
H   58.004398   51.363289   48.456551
H    4.395835    8.174599   72.718185
H   22.992575   99.848755   39.343163
H   99.626175   28.697096   19.284311
H   10.383182   20.032835   72.909721
H   86.732094    4.425694   88.358727
H   88.035614   76.474007   40.106422
H   99.148987   10.755219   63.900375
H   88.772820   27.152969   76.514008
H   19.459482   68.839584   83.163719
H   44.293053   78.900734   28.456608
H   44.758698   28.460377   58.588665
