100
TIME:    7.168, STEP:  7168
H   32.579178   64.680885   92.583511
H    2.514538   93.286629   30.070183
H    2.982054   89.598976   39.200077
H   82.679733   37.329620   47.260853
H   30.967485   47.304150   71.351471
H   16.860851   93.442467   88.617264
H   77.294449   45.355953   51.000088
H   56.495628    8.725619   50.052467
H   77.424751   97.119308   48.887394
H   78.976051   19.306856   88.373940
H   33.505127   54.662556   49.291077
H   82.258621   82.985535   82.703255
H   86.670082   28.115345   12.770741
H    0.165208   82.982094    2.727101
H   67.668526   29.751732    6.194479
H   13.313534   84.789429   38.034668
H   47.699226   56.077175   25.919672
H   54.352009   46.044067   51.045372
H   56.906490   79.060257   40.999363
H   99.401291   53.590206    4.363372
H   38.917435   42.620644   62.688259
H   49.583481   53.599609    8.856827
H   90.039070   36.325340   27.266108
H   53.047951   22.578341   74.716324
H   73.215645   17.701401   89.477211
H   13.809566   14.788887   16.341829
H   43.974461   44.512245   42.193203
H   27.727009   91.017723    3.707290
H   67.032097   99.429359   18.336828
H   75.846298   13.431984   53.223839
H   98.160286   64.823059   42.269661
H   18.348995   54.464947   35.686378
H   75.261971   44.037010   43.547005
H   80.966591   16.818161   69.774933
H    2.563876   16.951820   61.159935
H   95.739983   46.857544   96.890633
H   67.302628   42.028442   73.275726
H   67.723946   27.774334   28.267326
H   42.509418   25.237383   49.679672
H   88.047890   41.139248    1.997395
H   45.369217    2.136419   11.219837
H   96.133842   69.712463   45.898663
H   72.975067    6.486618   19.226505
H   21.643078   32.957176   81.584343
H   34.885094   49.078190   69.495186
H   85.599022   99.635483   12.282034
H   97.734665   14.658154   94.269737
H   56.625118   69.198059   12.092844
H   74.556404   38.795940   58.541451
H   76.233154   39.834980   82.345894
H   43.009403   77.619247   28.987419
H   53.493572   98.601120    3.502121
H   57.559681   63.571228   86.562660
H   10.699654   90.249924   48.119888
H   70.068039   86.774193   61.317875
H    2.523494    4.993683   48.611160
H   50.671040   82.716682   37.723976
H   92.311935   99.957863   28.924944
H   55.601051   41.639996   61.197578
H   86.004784   78.744781   59.735619
H   11.863268   45.225876   55.521355
H   44.511604   61.223343   71.026123
H   60.697269   18.151485   41.939178
H   35.253208   80.810211   32.528477
H   16.832222   88.348083   63.093647
H   61.005859   85.930901   70.011948
H   12.466280   96.179535   13.133014
H   85.222862   27.483397    8.874450
H   14.153269   34.739563   10.667380
H   75.606163    8.670693   86.639374
H   94.415306    7.691066   76.165779
H   82.995918   13.598857   81.458534
H   39.624619   63.752369   77.962463
H   72.410698   95.757080   77.255554
H    7.761624   38.869678   44.784214
H   95.111488   66.975731   13.614358
H   17.790134    5.391245   17.866823
H   68.746002   82.022774   10.300523
H    5.246039   32.464046   97.652428
H   47.999252   18.544567    3.391643
H   51.140266    3.438607    8.404206
H   79.177223   90.956253   87.329353
H   71.268211   26.992346   12.586784
H   43.296246   25.540604    8.731693
H    3.307508    0.520779   52.895134
H   86.319016   72.348450   39.550980
H   45.889301   82.180473   65.341255
H   71.310173   31.483007   21.256882
H    4.438706   95.069939   69.565804
H   32.590992   14.364010   80.454865
H   17.366840   60.481552   84.836838
H    8.658312   34.581039   70.102440
H   44.936039   42.595501   73.317024
H   40.025948   48.047081   10.126138
H   32.663124    7.663158   80.799713
H   85.968979   12.675687   97.212196
H   93.640526   79.036621   24.951008
H   24.441423   41.131786   34.984444
H   67.246086   67.755363   44.642635
H   84.443169   94.692429    7.223597
