100
TIME:    4.160, STEP:  4160
H   35.997955   40.528076   95.337418
H   85.586800   30.287951   40.407181
H   51.261330   73.191185   74.512093
H   82.174850   61.258354   12.138741
H   57.910309    6.199847   52.909561
H   63.516613   96.701256   90.724693
H   34.944958   42.241238   15.770425
H   92.918495   48.494198   26.236355
H   51.367195   86.326279   38.229763
H   61.158562   76.114799   70.592590
H   13.301956   33.628986   39.037266
H   97.063377   32.209770   96.816200
H   78.608963   10.026451   11.663651
H   49.101891   92.253578   73.818558
H   31.103241   98.439758   50.805866
H   34.260590   47.880302   87.724548
H   89.584602   57.121204   52.089561
H   90.033409   92.399712   55.322002
H   10.061760   52.871971   82.527039
H   80.439812   17.473932   99.564812
H   17.416412   42.076565   44.333229
H   61.203598   49.606445   65.015854
H   30.202034   60.789207   13.327201
H   32.532448   86.574341   98.114517
H   80.798981   56.251617   67.262367
H   27.582693    3.673458   99.231453
H    3.356997   69.552567   82.510170
H   81.532867   50.614441    4.277525
H    1.625614   26.519543   60.526649
H   60.505966   87.879448   14.096752
H   79.778175   95.091133   80.252983
H   28.422010   37.574829   14.151985
H   63.383457   64.116875   72.562607
H   53.871643   92.483643   96.497765
H   77.364578   44.456078   78.042831
H   34.258961   11.258234    6.350028
H   78.796738   52.187973   36.256947
H   92.052223   82.821663   16.001781
H   69.479370   90.779167   41.177055
H   71.367210   22.737751   65.335632
H   50.944962   98.925308   40.353497
H   57.744034   98.560028   98.242203
H   47.073353   88.446228    1.955553
H   13.714991   82.488129   87.477417
H   95.806694   67.757019   12.093005
H   24.417965   42.262440    0.058659
H   74.234665   51.073082   65.399620
H   56.461582   38.216614   25.975121
H   86.631454   87.918671   78.530914
H   13.125209   94.052193   92.709084
H   43.227238   68.022316   97.279190
H    7.301264   77.722839    0.964520
H   95.163734   46.129822   61.264416
H   80.355919   39.331886   15.385798
H    9.568834   23.160540   35.729496
H   98.771317    8.157949   51.010590
H   59.976360   69.511620   51.638100
H   16.293449   84.026787    6.402514
H   18.367445   14.538744   92.117592
H   84.501648   47.540173   45.290291
H   22.116713   85.112694   90.049782
H   51.268089   89.221390    7.126264
H   56.483753   23.412292   48.206779
H   28.698816   64.424469   14.194630
H   97.439171   28.591331   82.971550
H   45.789680   35.466805   92.155472
H   53.804092   92.184937   67.907028
H   93.005974   55.452286   65.074654
H   64.237930   50.875259   99.323608
H   14.668352   57.379852   92.973358
H   89.933037   12.353226   12.245323
H   30.956425   13.462928   61.198673
H   35.752213   12.536617   55.088158
H   38.633083   86.126671   55.980797
H   62.739834   34.569759   16.754202
H   24.001902   74.190636   16.014637
H   44.656197   65.986374   64.620705
H   27.424694   78.708961   44.181778
H   60.998077   41.299496   64.100670
H   95.510834   82.391777   62.533501
H   92.279404   72.318771   28.621931
H   53.455536   71.395523   38.921265
H   81.000435   76.696045   26.119457
H   36.351608   68.139229   83.465103
H   49.772141   88.674019   44.487015
H   55.551945   61.860497   30.666367
H   44.991722    0.887026   21.908506
H   22.917513   72.234627   52.480629
H   42.016220   62.549980   94.167366
H   98.538193   38.122475   72.925720
H   94.266907   98.060265   21.313395
H   86.094299    8.354717   12.793621
H   52.117531   52.338730   40.703716
H   49.308147   65.568985    7.306485
H   84.666054   77.102531   11.679683
H   37.520554   31.456726   52.579582
H   32.400726    6.414515   97.943222
H   22.136023   51.657593   89.469124
H   10.540367   54.782421   96.592552
H   97.605507   71.879036   96.993698
