100
TIME:    5.106, STEP:  5106
H   72.024574   53.775093   94.471329
H   59.459785   81.550720    0.054688
H   67.523712   41.249664   63.411335
H   82.333633   22.283455   60.287209
H   49.437073   82.025925   27.259563
H   48.843624   95.676384   84.410637
H   85.364571    6.118351   89.748856
H   18.564766   30.335842   39.378178
H   28.112709   95.372208   78.682976
H   35.305809   89.697960    7.633658
H   25.307343   71.693588   47.913403
H   60.961296   79.628136   29.477926
H   18.242569   52.820656   17.664062
H    2.262698   89.337746   45.809540
H   42.608070   13.939082    5.330730
H   96.221954   65.139603    9.198265
H   13.513071   19.693501   38.207672
H   10.256255   46.376781   22.525408
H   24.796097   92.555298   32.365879
H   54.950493   97.383827   63.972847
H   61.279442   47.899429   18.659035
H   51.897537   50.862274   84.455231
H   17.571571   53.095451   86.261032
H   44.637188   97.910858   27.856773
H   46.963776   81.228470   74.248817
H   23.270292   75.712372   10.273169
H   21.782412   30.226097    1.275856
H    1.712932   94.770538   35.549873
H   22.196434   12.348440   15.808903
H   96.780655   64.466179   89.301277
H   17.007946   79.920120    5.408470
H   88.153267   11.440282   26.576027
H   30.016682   94.903511   57.785759
H   93.841644    5.788336   56.643242
H   53.850266   72.945602   35.647720
H   16.493544   85.352257    3.373902
H   69.530090   17.542912   10.798081
H   52.950352   65.514320   82.757607
H   29.546444   70.166252   49.502747
H   82.265007   34.176483   39.763844
H   86.293106   31.382414   62.640850
H   72.722282   41.018005   42.681980
H   55.221806   94.119110   70.284706
H   53.307293   98.346802   79.973434
H   13.748392   30.435081   93.044334
H   12.212769   60.305958    3.904270
H   81.625290    2.518906   74.479118
H   56.512104   47.960114   84.508293
H   14.285080    9.571514   40.793869
H   32.965862    8.447935   26.543983
H   43.155064   76.692001    7.252339
H   53.274208   89.940704   38.862923
H   14.784997   51.615051    6.319983
H   58.445702   23.893852   57.129845
H   34.248108    6.069946   43.776905
H   99.954971    7.162706   18.806519
H   19.950607   42.215385   41.610603
H   45.851944   94.688667   82.035995
H   92.976585   54.510254   19.492237
H   22.075924   20.251896   18.383797
H   81.790833   41.119137   16.292549
H   17.694250   80.416153   64.326019
H   20.706274   58.858932   83.336700
H   93.659218   69.577698   88.511108
H   34.987953   53.037006   71.068535
H   87.676445   88.438774   48.089897
H   77.904388   24.890812   13.579735
H   27.659569    9.554507   10.298926
H   11.383461   82.901741   39.993599
H   33.833832    4.958485   90.981354
H   59.894188   47.988037    0.896413
H   52.953445   82.066650   30.458820
H   74.070465   65.740883   30.830452
H   17.806622   26.260597   99.772972
H    8.352813   35.919415   88.467133
H   46.368645   34.819214   52.359707
H   30.546316   83.992378   81.350655
H   71.869492   16.851162   96.424110
H    6.365376   38.520794   74.652519
H   49.117340   30.869362   81.034821
H   10.788359   82.105576   85.162880
H   24.434692   77.573624   59.817039
H   40.841103   92.509705   16.212896
H    1.435042   49.090744   97.063385
H    3.708829   29.501503   52.782936
H   33.777027   96.605537   96.359207
H    8.172934   32.105133   67.017303
H   38.144089   96.496338   42.643303
H   61.647568    9.878649   86.430305
H   14.899354   99.199142    6.745583
H   32.981255   49.140285   41.291180
H   56.091190   79.499466   30.817663
H   12.757819   80.727242   13.859394
H   40.742386   22.948912   71.088905
H   68.311409   92.364799   33.415501
H   15.656295   94.101837    3.717281
H   57.311974   60.703533   43.538406
H   25.607595   59.712219   74.327003
H   65.475037   58.860256   17.355606
H   56.363087   47.604557    5.862945
