100
TIME:    7.979, STEP:  7979
H   77.735100   90.308952   91.841019
H   80.116318   37.234638   81.207169
H   16.922632   47.944855   29.678364
H   82.815857    3.914848    2.805758
H   23.700338   12.309285   49.361313
H    4.283229   92.563850   68.933937
H   34.790997    0.116905   14.421360
H   92.752625   78.886467   75.588997
H   57.488823   19.144691   97.836945
H   56.825020   30.951616   20.129681
H   58.067886   87.295105   71.171127
H   51.306511   23.636410   24.974827
H   34.955467   79.027252   32.176159
H   60.008736   80.482368   64.446754
H   77.518929   57.309219   67.189728
H   80.704605   13.856581   70.714142
H   82.483253    9.720411   99.748199
H   71.692657    6.580924   22.934837
H   69.537766   13.080998   83.726486
H   77.547256   36.370564   59.580025
H   90.791557   61.883564   40.679539
H   27.334841   54.676224   39.792709
H   79.211052   29.730597    4.060914
H   77.694260   32.280243   14.483565
H   44.208931   53.386429   95.466652
H    9.985729   90.882553   40.023041
H   74.041534   10.798598   58.286732
H   59.295982   28.872442   30.515078
H   84.666298   73.009354   80.000786
H    6.943974   93.358902   17.696182
H   30.078749   37.548111   78.105995
H   69.556236   32.060230   60.608070
H   32.386608   84.701042   16.608290
H   15.233323   42.494911   35.607895
H   82.380333   55.547752   10.500010
H   66.238525   10.378320   94.341408
H   45.088718   12.326685   37.179226
H   34.205902   12.930988   85.497276
H    8.274669    7.569151   71.088020
H   11.661186   65.216995   65.806824
H   89.943817   29.961470   30.326262
H   27.787392   72.892807   87.302299
H   79.954498   11.351492   77.804451
H   69.856415   46.569542   60.878811
H   64.535576   17.082943   38.894928
H   75.129875   15.101382   15.576845
H    4.073082   58.763435    2.054855
H   56.674618   77.551102   62.272854
H   98.266670   71.628609   26.187889
H   93.260986   52.178921   25.640362
H   42.953716   99.322136   37.537369
H   92.907562   23.346498   50.265259
H   74.379509   68.273682   39.463875
H   91.918121   77.021179   83.908035
H    5.494686   57.847107   68.213089
H    3.533594    4.140590   21.002808
H    2.086853   59.315788   14.856872
H   31.922537   23.369394    8.033647
H   19.560947   75.910072   98.937973
H   32.487083   41.081036   36.668846
H   63.022106    7.511774   92.290779
H   15.727638   53.674667   34.329605
H   15.754447   62.810455   86.326477
H   90.943352   85.228043   10.507768
H   49.024010   23.574511   38.618835
H   11.185894   45.613548   17.965107
H   47.398651   24.217667   52.288616
H   29.201790   73.864738   47.644943
H   54.575737   76.466286   59.805122
H   92.074089   49.407810   84.920273
H   68.663185   52.511276   66.439125
H   16.216412   86.665428   40.903515
H   86.745087   23.638556   57.170506
H   54.557026   44.428448   29.067968
H   46.827194   40.063854    6.274847
H   14.283877   18.951462   59.042778
H   91.446007   35.197968   32.249580
H    6.847559   28.995617   55.091198
H   44.134468   30.081882    6.701939
H    8.227942   74.365379   33.523140
H   67.017235   11.828774   56.876846
H   40.034126   96.215576   19.481388
H   22.563726   40.555210   89.822449
H   99.092278   94.939209   34.658756
H   63.819275   49.785572   74.278481
H   67.657700    2.135005   95.869049
H    0.054146   23.214180    4.012791
H   84.353294   66.587646   12.848152
H   21.271469   49.914009   62.932869
H   60.888920   80.998672    9.447895
H   50.556263    4.275270    1.963739
H   68.664101   95.576813   85.558662
H   96.922897   66.929955   36.032898
H   18.405729   97.249596   64.810493
H   18.639439   35.019577   99.436279
H   52.954285   80.650269   55.323235
H   29.266542   25.577370   78.308968
H   22.876001   81.259987   18.702765
H   28.611717   71.257454   76.712883
H   34.817486   73.877884   29.097744
