100
TIME:    7.361, STEP:  7361
H   19.527880   46.981758   92.406815
H   97.184494    3.744593   42.240055
H    6.299720    3.484233   36.933941
H   82.712128   29.378021   36.681133
H   29.238066   62.773952   66.118301
H   13.867576   93.233376    7.730282
H   67.178558   58.388813   66.092941
H   41.326210   25.422153   32.331253
H   72.680443   78.563202   36.738018
H   73.704597   22.078051   95.930672
H   15.552734   62.428379   30.701052
H   74.893311   92.659683   68.965080
H   74.363152   16.434216   93.590858
H   90.608864   82.387215   17.415012
H   70.012703   12.512016   96.912872
H    5.552922   67.908997   22.013700
H   32.179359   68.842606   43.489223
H   58.479351   36.652634   44.355927
H   59.911808   87.155914   51.166790
H   94.200516   49.492313   17.503672
H   27.464539   23.406342   57.450672
H   68.086578   53.855820   92.421158
H   87.462242   34.755684   21.743597
H   35.114700   24.887178   60.382896
H   66.312691    2.395042   90.902565
H   12.899578    9.099987   98.179375
H   27.331305   36.488739   46.023106
H   11.442296    0.026314   10.087148
H   71.228645   16.939619    9.214121
H   83.246948    8.654913   68.567009
H    5.756101   82.130508   27.000114
H   30.535183   49.133121   17.819389
H   88.855843   29.916101   60.933968
H   89.121147   99.131081   61.643936
H   97.760551    2.339058   72.901794
H   12.516987   61.973953   96.283974
H   85.814560   34.960571   88.483429
H   59.746872   24.241871   41.886230
H   34.362225   21.032736   30.976360
H   69.868736   23.070894   17.182276
H   32.178802    8.758267   15.766466
H   79.868904   70.469315   55.750980
H   74.636017    7.644350   33.166409
H    9.319750   36.196617    0.455538
H   18.143936   41.464031   86.010445
H   83.107597    3.316108   13.066126
H   99.242477   25.154678   96.122108
H   56.636898   71.185898   24.034481
H   80.198921   22.812244   50.841888
H   80.285400   42.772564   68.852150
H   42.996151   58.986572   31.021641
H   62.873226   80.692902   90.832825
H   61.563335   64.690308   75.354195
H    6.230698   87.101776   56.636673
H   54.701309    3.687259   62.959682
H    2.763876    4.790666   42.040985
H   62.905819   77.147789   56.079826
H   77.940598   81.731590   23.953138
H   70.821342   49.796024   46.381554
H   73.267891   93.578476   54.246239
H   24.038286   36.251152   40.474152
H   37.661659   59.426926   62.294067
H   73.799706    4.981257   28.704590
H   48.506939   81.861557   27.287945
H   24.492764   72.934235   81.066658
H   49.149506   76.336266   81.423615
H   96.981232    2.852382   22.451559
H   71.891090   38.521355   18.100967
H   23.772865   20.871811   98.562653
H   79.522850   18.369188   86.231033
H   88.286873   94.559341   73.851051
H   67.106056    7.185359   95.605049
H   27.040571   54.206326   73.014954
H   68.161140   83.541443   65.787933
H   17.058084   39.153866   59.417652
H   99.673210   79.344505    0.628164
H   35.319050   88.687080   21.289587
H   77.813492   69.403679   20.959558
H   14.500846   31.897144   99.805183
H   38.534195    8.030652   86.764534
H   54.918633    5.435281   19.939804
H   93.660469   92.207855   71.182213
H   83.475014   30.220007   30.967598
H   56.573536   42.056149   91.103874
H   93.910187   88.446556   34.185890
H   81.878036   79.436935   52.953430
H   58.779331   68.147804   74.544212
H   74.414146   16.038973   19.255791
H    8.444406   84.323830   67.987312
H   15.527202    6.422962   87.354874
H   25.265186   70.903221   88.912643
H   22.938356   49.096680   73.780678
H   57.307758   48.386738   88.242012
H   58.677765   59.756187   23.139688
H   29.325909   90.375748   85.234802
H    1.909994    5.054605   87.243553
H   78.320915   90.112564   13.850841
H   24.068888   50.680775   31.110197
H   58.051964   68.588783   28.476353
H   96.432045   89.739029   88.631668
