100
TIME:    0.014, STEP:    14
H   16.375799   20.737335   99.133194
H    0.880783    5.503778   78.883636
H   80.004974   74.911064   23.175484
H   81.478958   32.074211   39.396034
H   95.045654   73.879684   65.325737
H   27.799240    1.198415   80.132225
H   52.235775   62.284344   91.547302
H   18.785925   89.813385    6.908007
H   53.283852   84.947281   99.205116
H   74.458015   16.588470    8.236719
H   98.952789   66.805832   38.400978
H   55.307766   24.392220   91.932915
H   42.371590   60.860367   23.737663
H   54.388905    5.034101   58.306534
H   80.673409   68.770554   50.100368
H    0.958344   10.514458   31.878414
H   22.940218   82.922951   74.629356
H    1.444027   94.019684   99.060837
H   45.482300   78.941254   64.098419
H   92.270424    5.238932   17.143122
H   63.445770   54.824364   56.860962
H   63.690220   44.118416   18.063372
H   85.557106   94.508354   31.950722
H   17.740818   36.849674    6.034500
H   29.081804   85.062202   36.661575
H   46.588520   27.198563   87.857597
H   60.872486   41.895557    0.244213
H   31.359062   57.092648   67.239212
H   11.475417   50.361996   56.510345
H    1.530948   90.493149   84.501823
H   16.652468   23.297647    8.304159
H   66.641327   52.123146   97.968056
H   71.344910   67.457954   99.058182
H   78.693672   72.439697   71.161674
H   80.423836   57.861893   25.581261
H   73.772392   85.585808   20.596159
H   81.143623    4.020495    9.567005
H   63.409454   58.698009   23.429651
H   50.091953   80.209129   40.785172
H   61.873867   10.872252   39.135521
H   34.284733   56.659473   42.667454
H   30.362930   12.484747    3.458201
H   11.362453   63.583889    2.484876
H   78.465714   13.006528   82.100113
H   55.440315   31.339573   57.305130
H   77.772636   63.467121   83.373192
H   36.227894   26.495625   27.742865
H   56.240162   95.525833   69.444183
H   65.436150   31.289593   43.916199
H   26.183409   30.962482   82.685684
H   43.536572   68.293388   53.576626
H    5.813935   62.440758   73.143631
H    9.169865   22.089905    2.056336
H   76.359833    6.973939   32.433430
H   39.645332   59.732937    0.524989
H   93.583755   12.517780   92.150208
H   97.140038   89.142830   57.318977
H   25.017756   75.564323   13.194422
H   91.381569   39.360626   10.408282
H   58.100494   28.863806   63.199272
H   60.583939   77.919174   13.304770
H   98.414246   27.815048   94.720398
H   75.183327    6.198572   32.597626
H   44.000839   41.870636   26.760916
H   32.876915   59.726994   96.864723
H    0.485468   41.577198   47.013653
H   86.445091   48.845722   67.738266
H   79.398628   18.337818   66.871880
H   57.601585   48.780373   59.355709
H   30.670307   48.848434    1.701332
H   21.588469   94.451622   61.979496
H   72.811974   51.060890   57.647541
H    6.078595   17.614536   61.390751
H   29.882820   48.494427    2.376561
H   62.845074   28.663618    2.458915
H   25.988646    8.469427   94.988052
H   68.226929   25.330757   91.279236
H   32.638077   49.804493   15.213158
H   62.225601   53.458431   17.844559
H   98.838852    8.191318   19.714930
H   11.156185   29.425547   80.825470
H   42.374821   44.318985   85.609802
H   18.681721    7.491019   31.233187
H   51.133553   13.359592   62.151466
H   51.649734   48.010422   46.395073
H   50.978123    9.561763   42.757626
H   68.089745    2.335014   24.210781
H   56.180542    4.173237   95.592323
H   55.973824   93.393089   28.086548
H   65.096840    8.711121   24.712366
H   24.595522   74.186523   33.757397
H   79.322487   96.559685   33.791908
H   86.182503   28.050875   19.997690
H   48.581459   14.081388   27.763008
H   56.349613   48.476162   16.409260
H   95.077896   95.178825   66.725777
H   61.491051   68.483818   36.383705
H    6.916849   16.356873   55.811081
H    8.045017   36.910641   43.878788
H   40.110973   78.342796   96.337387
