100
TIME:    0.862, STEP:   862
H   59.028725   42.971474   98.356827
H   77.292122   51.482304   32.374874
H   94.574799   35.919292   13.218575
H   81.621292   97.134727   92.913811
H   87.450195   41.850624   42.332329
H   14.649521    0.275480   64.113274
H    7.793756   19.543478   57.862293
H   52.134796   63.174801   29.047974
H   32.438393    3.415540   45.827667
H   51.283455   28.761261   41.445824
H   20.073883    0.927140   56.716576
H   22.939724   66.898323   31.570391
H   88.430542    9.555231   39.453110
H   12.400518    2.419523   22.838428
H   90.986153   93.027374    9.336155
H   66.865021   36.340366   61.486801
H   54.763023   39.002426   51.838051
H   19.564667   52.781647   69.662399
H   58.687012   14.514270    8.777193
H   69.315834   87.459167   74.995415
H   13.124237   70.403229   33.848145
H   45.002064   45.237679   45.858242
H   74.235085   87.611626    7.686567
H   38.952408   47.020084   43.055511
H   98.754631   17.811420   42.922607
H   42.706486    1.925518    8.378259
H   87.747650    6.643946   17.071600
H   59.807014   96.674438   95.266068
H   29.914536   27.299150   16.425179
H   34.045483   69.505356   51.914913
H   50.010380   99.342812   41.200249
H   20.184210   28.696266   19.464394
H   31.075539    5.414629   75.452721
H   14.523669   94.725655   35.435844
H   59.345467   93.759438   77.217804
H   47.502777   52.199657   17.678312
H   62.475117   72.967628   76.387581
H   28.362946   43.177135   83.270241
H   11.967384   62.106834   59.509117
H   82.002357   31.485415    5.854040
H   76.332748   85.758675   62.652439
H   54.149529   50.545998   43.298267
H   18.665747   68.669098   63.735054
H   24.314562   27.217283   65.014900
H   81.883018   97.881912   29.871515
H   66.942314   79.408745   86.698631
H   45.181995   72.241898   34.988960
H   56.285450    4.258539   21.913572
H   90.228142   61.057327   10.087811
H   43.968685   43.869587   23.375664
H   43.478855   86.422752   62.505665
H   47.024040   83.752045   17.472694
H   26.760424   27.006897   52.807159
H   56.728283   93.139229   69.854324
H   72.136765   34.072117    7.720747
H   94.644791   11.626024   63.282288
H   50.897820   64.674324   37.970894
H   61.872253   95.482109   91.351639
H   58.259995   75.189972   45.307514
H    2.136541   94.043365   39.092247
H   14.076071   38.483910   47.186798
H   68.317078   19.921982   56.353630
H   32.701515   48.371864   74.421486
H    2.230742   46.483551    3.735159
H   66.538414   91.997429   75.838142
H   48.391243   99.420601   97.154030
H   18.408800   78.163177    8.679260
H   20.821724   66.835800    7.411185
H   99.862816   87.848511    6.168386
H   47.847694   91.499168   99.917999
H   94.659096   36.751545   51.809086
H    2.891781   22.917580   19.732801
H   50.788040   75.667549   39.646000
H   11.218066   94.830231   51.977379
H    3.733189   29.870222   66.743340
H   46.038326   62.820198   37.928020
H   45.219212   51.833611    6.286888
H   72.478653   94.356483   62.046772
H    2.869107   50.977390   27.300064
H   57.251450   62.009521   46.659058
H   27.750561   38.199444   31.507778
H    5.999229   49.857071   14.697857
H   72.336967   21.644518   12.001030
H    9.466923   85.924049   84.695900
H   10.356909   94.964691   64.191231
H   31.452663   40.717464    1.643031
H   24.725760   40.678505   64.646576
H   69.831665   36.280037   86.780556
H   73.571480   46.177025   21.147766
H   90.124283   73.814896   55.028728
H   59.299137   19.977709   51.665600
H   42.066227   60.336632   49.946815
H   40.591026   53.457993   85.601311
H   30.543329   65.520866   84.938591
H   41.689213   72.517517   35.893486
H   65.119247   61.691521   22.925728
H   94.181168   17.148603   87.614471
H   10.030124   23.577087   42.244064
H   67.648369   40.566036   72.845100
H   92.774551   56.563488   14.662897
