100
TIME:    1.027, STEP:  1027
H   47.870277   27.840096   98.205765
H   72.702354   60.428951   42.783047
H   97.409729   47.790249   11.281204
H   81.648987   90.336937   83.870232
H   85.972305   55.076103   37.858376
H   12.090908    0.095907   80.453148
H   99.146172   30.685560   70.765511
H   39.166122   77.450089   13.897757
H   28.382378   87.551453   35.440895
H   46.774254   31.129787   47.907501
H    4.725983    7.566128   40.823593
H   16.641697   75.168968   19.825949
H   77.934250   99.572273   23.053724
H    4.230896    1.910797   35.395458
H   92.992760   78.288757    1.404478
H   60.230881   21.907650   47.790512
H   41.497261   49.914139   66.861168
H   23.090706   44.757736   63.942184
H   61.256325   21.436686   17.469553
H   64.849434   83.999847   86.252052
H    3.332971   53.976982   29.370045
H   60.823292   45.455460   31.808216
H   72.032097   86.269691    2.965565
H   23.622131   48.998997   30.800606
H   92.853142    4.725674   44.139915
H   41.949917   97.008789   92.912476
H   73.520126   99.784927   20.345869
H   45.885391    4.376182    0.719474
H   33.502258   42.269199    8.625973
H   40.372463   65.421646   65.032127
H   56.501011   14.139849   28.143642
H   30.602453   24.137970    4.189546
H   42.698452   93.342476   90.317223
H   21.495247   79.604347   28.484793
H   55.244133   81.286751   87.265945
H   61.848633   65.160782   17.110571
H   78.301262   66.925148   89.388985
H   21.543755   40.157154   94.914604
H    4.549369   58.584572   43.694183
H   66.460594   16.038694   18.835932
H   65.055969   91.420982   66.540207
H   39.320274   57.951813   51.050266
H   20.086988   69.658554   75.653816
H   13.778616   29.982347   81.148323
H   67.569893   91.371140   43.991943
H   64.834999   82.510628   87.345680
H   46.924244   81.141968   36.398872
H   56.294262    5.957357   32.122845
H   95.052055   47.392509    3.505605
H   47.429264   46.380993   11.835785
H   43.466267   70.493263   64.245392
H   55.042915   68.441910    6.640309
H   30.183237   27.963623   43.223534
H   52.907673   90.447807   77.135513
H   59.001442   48.537563    9.120903
H   94.851242   11.452618   57.665298
H   61.357605   59.913353   53.663719
H   49.585876   79.900063   87.101761
H   71.273430   82.161484   32.639706
H   91.247696    6.725684   34.399254
H   24.484816   30.811218   34.322609
H   62.460907   18.386185   48.887390
H   43.893951   37.120262   63.101906
H   13.561090   47.381111   99.255119
H   73.086952   78.819786   91.203667
H   38.254982   91.217934    6.909898
H    5.170103   83.868286   16.645893
H    9.423913   76.272141   15.299140
H    8.086676   75.992661   95.820045
H   51.189941   99.797508   99.570557
H   89.419762   25.524225   49.830173
H   89.286331   17.441582   31.813356
H   40.029907   67.505165   35.415005
H    7.586598   84.389328   42.170937
H   11.688262   30.104998   79.251274
H   49.939503   73.394676   26.825928
H   60.200787   37.533073    9.206476
H   80.230652   83.568138   71.158600
H   10.778360   50.493992   29.139874
H   49.159561   53.022591   32.444122
H   30.979511   39.906445   41.369579
H   18.379391   50.934647    0.899919
H   82.777870   24.398252   27.716434
H   20.817793    0.043312   69.624947
H    2.322518   84.644638   48.196281
H   27.654713   46.778828   13.101383
H   35.745735   28.681664   72.514389
H   72.487839   23.070091   85.066002
H   76.995552   36.989937   19.797649
H   75.536728   67.024658   60.927700
H   66.051613   28.887220   55.150097
H   54.274555   72.746376   53.090164
H   51.177956   58.401497   98.366051
H   46.491699   75.528725   96.064308
H   38.836658   57.738083   39.685143
H   78.747559   55.175713   14.403254
H   81.084091   26.617674   78.125259
H   10.635945   24.981964   39.604256
H   59.788109   41.277287   59.023380
H    3.021614   52.324940   98.770821
