100
TIME:    9.432, STEP:  9432
H   79.474518   57.062202   90.510757
H   39.986771   15.969519   72.823723
H   41.898289   52.479546   12.622757
H   83.059738   44.052727   23.162115
H   10.680407   28.773376    9.966085
H   81.755859   90.989708   12.828086
H   58.637493   98.230858   28.047863
H   78.549698    4.590473   42.179161
H   21.771309   79.443558    6.376030
H   17.136816   51.814548   77.021675
H   22.913361   45.757965   31.209253
H   95.846535   96.468208   21.548817
H   42.302383   91.082390   87.781357
H   88.065628   76.003822   75.020027
H   95.167061   27.520088   97.316673
H   22.283043   86.771652   50.102600
H   65.641670    5.825146   32.020523
H    2.764635   35.877678   72.565506
H   92.174377   74.038391   60.274403
H   38.400486    5.514830   58.507011
H    4.568090   17.232119    1.243074
H   66.635376   56.605103   16.056320
H   59.811409   17.918985   62.489975
H   42.689198   49.662323    6.571369
H   92.242661   38.156006    6.194419
H    3.132725   48.048141    3.288341
H   48.747482   50.400898   87.111252
H   36.696991   96.693588   78.545067
H   16.261135    4.837094   11.316635
H   62.657707   57.397507   33.205055
H   87.264198   67.840591   63.149277
H   61.299549   91.916534   26.096565
H   34.734787   78.392578   47.506004
H   76.626358    9.336168   74.396461
H   46.219398   45.535225   98.902405
H   92.545425   24.187540   89.774178
H   84.450348   59.114998   51.670002
H   74.148674   86.343788   88.031441
H   46.945271   75.910240   30.281181
H   74.803879   29.190712   80.125259
H   90.641495   79.816528   64.558311
H    5.336245   78.590759   61.479618
H   92.458954   20.068768   82.755730
H   77.084389   70.965126    2.945287
H   38.499802   59.766689   63.235851
H   56.377701   42.811779   21.479879
H   15.432721   37.784039   16.008612
H   56.763302   92.516541   52.175877
H   40.735962   51.291309   68.229614
H   23.761122   74.299675   24.047092
H   43.800404   59.117004   51.403946
H   63.524303   88.519485   54.884041
H    4.511099   76.698669   55.077805
H   58.264404   53.315361   48.023872
H   89.804665   85.180328   80.562347
H    5.343304    2.612175   71.539246
H   94.200394   17.390388   53.049171
H   23.729612   86.150856   70.608299
H   34.160870   37.305649   87.390800
H   36.603886   52.763897   95.342079
H   54.681309   39.939373   79.007225
H   64.157799   40.150345   68.588799
H   14.398726   63.660301   86.689911
H   90.718384   93.143097   71.063034
H    6.694388    7.524302   73.929634
H   21.926659   73.380974    3.877915
H   30.821918   74.449280   22.439381
H   28.833145   56.963753   17.106750
H   26.991373   72.062973   68.675415
H   21.584000   22.389795   81.838501
H   22.516464   53.645512   49.012703
H   96.565315   38.421288   47.407093
H   92.007965   51.763966   19.912106
H   22.575329   52.467983   42.735756
H   16.819784   42.203358   16.442022
H   48.637733   12.075080   61.274132
H   23.409740    9.436108   58.023392
H   75.104546   33.992790   35.344315
H   13.813060   25.813961   22.918451
H   36.970726   95.213020    8.346018
H   95.462654   26.860727   43.721214
H   49.065109    5.644062   97.923103
H   14.468016   64.854652   28.199009
H   99.056084   19.275875    1.950625
H   93.071548   58.890625   33.426941
H   34.213924   55.508636   96.769775
H   97.096794   17.568932   73.297310
H    7.721002   50.318520   97.784515
H   51.426029   69.013634   51.049202
H   32.423100   21.217667   61.385567
H   10.019365   82.730484   32.648705
H   76.171387    4.856312   13.245271
H   90.062988   10.520803   48.395622
H   57.884010   85.328842   64.236427
H   93.515976    4.867782   32.821846
H   72.966110   23.272512   80.273743
H   13.934741    8.961852   94.744797
H   20.071367   53.154751   89.529259
H   59.394279   77.531853   55.009518
H   25.069542   36.594379   89.125305
