100
TIME:    3.694, STEP:  3694
H   67.512115   83.262756   95.764053
H   98.514183    5.026790   11.016186
H   43.251244   39.664726   79.980141
H   82.096634   80.456963   37.682308
H   62.084229   68.847893   65.545090
H   70.741219   97.206108   44.575432
H   59.366299   10.773443   79.328545
H   29.545181    8.180503   69.023949
H   62.822365   31.130447   67.564095
H   73.893639   69.423729   52.344528
H   56.648148   14.878399   83.924477
H   14.849915    8.851738   29.985605
H    8.287620   38.215363   57.974731
H   72.175774   93.689919   38.355450
H   25.434319   40.064072   73.206337
H   52.997009   88.638237   26.407312
H   27.057747   26.300327    9.667746
H   80.078575   15.061616   71.479187
H    2.803938   33.321388   57.975025
H   92.997124   27.370104   67.837334
H   45.069519   88.467773   56.979424
H   16.527725   48.987823    4.700049
H   36.423805   64.579155   26.661167
H   75.828865   80.985413   32.724819
H   97.466217   93.206131   63.820839
H   29.719114   17.541128   42.931992
H   43.541264   88.921829   73.266396
H   20.853151   28.863129   88.875237
H   91.492905   84.240738   82.555275
H   42.637039   99.412834   77.051147
H   61.439449   53.303074   17.121422
H   98.998756   50.448563   57.291969
H   30.557470   98.212181   30.581648
H   34.182404   35.189613   16.128803
H   88.947739   79.681969   49.666237
H   93.738976   74.669098    7.935783
H   34.101913   69.253403   99.538200
H   11.313245   91.347267   83.116676
H   89.147278    0.932932   86.336449
H   15.260273   66.364243   28.670134
H   82.793320   82.933578   29.374739
H   99.625443   77.647766   76.348679
H   43.059422   85.651764   68.294121
H   43.471741   74.680695   41.913589
H   36.228649   86.145020   72.216248
H   30.429974   33.374195   98.167152
H   70.594040   25.730480   60.924614
H   56.436695   33.416962   97.141747
H   73.007553   26.512604   97.118011
H    3.351695   86.962929   25.301373
H   43.262791   13.011547   92.365768
H   84.654587   20.963314   31.557774
H   85.500435   43.427795   88.327705
H   91.149803   46.936668   94.823273
H   46.671768   82.319275   31.765444
H   98.188248    8.648581   66.874329
H   30.435389   82.957756    7.317582
H   50.993156   28.035149   18.406265
H   81.614540   94.848679   27.892391
H   15.253648   11.720549   58.544441
H   92.720650    6.784955   26.382725
H   67.807335   93.558853   28.212379
H   24.845560   55.211357   80.161797
H   96.699455   61.888947   26.847935
H   78.944511   65.811409   39.575581
H   74.416939   58.633125   64.601913
H   91.191605   76.072327   45.409100
H   25.196083   28.801561   42.797161
H   41.011208   84.359055   28.551174
H    5.227259   33.939774   93.954620
H    4.730471   44.060371   17.836029
H   69.379074   28.928619   27.078735
H   66.135788   35.585613   67.036613
H   48.893673   15.615376   83.669456
H   40.273907   33.904919   81.428017
H   12.984277   44.323792   47.369717
H    2.345792    6.374855   56.379520
H    5.531168    9.178492   18.444979
H   38.653030   42.668285   58.899338
H   18.364754    7.770065    2.679886
H   83.163620   67.497787    0.771045
H   18.489182   68.352188   77.887329
H   51.518398   68.917053   81.735199
H    4.291952   28.262840   26.027222
H   72.462051   17.822063   89.660629
H   66.277527   44.741737   98.305634
H   13.868643   34.769035   99.687378
H   15.417612    9.543673   57.326500
H   32.345810   88.496544   97.978645
H   39.739361   57.296196   56.267242
H   75.196289   72.895866   11.472329
H   51.613747   73.313042    3.913578
H   22.246498   38.355743    4.667174
H    4.266273   37.301010   75.885277
H   92.722359   18.843258    0.972015
H   99.030807   49.858894   76.648949
H   69.390045   79.671776   24.744169
H   20.425924   47.689880   96.928139
H   32.739647   52.773678   35.625854
H   68.658272   83.839058   41.885254
