100
TIME:    5.687, STEP:  5687
H   32.733315    0.495368   93.939407
H   43.413490   13.033114   36.688931
H   77.514969   83.049820   56.589443
H   82.431152   98.344940   28.438663
H   44.233109   28.595552   11.507725
H   39.831989   95.046944   41.949100
H   54.913395   45.351734   35.183887
H   72.899307   80.599442   86.032387
H   13.830620   39.511597   42.110725
H   19.429712   98.040260   30.386587
H   71.264145   95.071533   91.948952
H   38.784607    8.750509   88.122536
H   81.167679   17.686344   59.932793
H   73.494713   87.546944   90.022896
H   49.673759   62.041672   77.404297
H   72.861740   14.323342   60.970428
H   66.792397   58.120388   91.098389
H   22.680540   18.108501    2.385534
H   33.844959   16.929064   62.973522
H   39.298706   85.043251    3.530025
H   26.802071   90.058228    2.889782
H    7.598572   51.633560   34.977676
H    9.813500   48.370216   69.638489
H   90.653664    4.861300   84.707336
H   26.184002   35.152435   78.539650
H   20.621767   58.538765   55.637138
H   71.683304    6.074238   12.804466
H   52.688656   21.889626   54.756668
H   34.829567   65.061096   88.345154
H   19.058147   50.086571   35.488327
H   39.874680   32.020123   59.441597
H   24.837742   95.387772   72.789986
H   70.942741   52.394127   10.126828
H   18.390762   52.543083   32.165993
H   39.408600   29.026476   71.025803
H   66.998795   30.859341    1.546659
H   25.256638   96.264282   56.578655
H   28.938534   54.880955   23.757641
H    5.020864   57.506523   93.200066
H   27.541937   79.785713   85.475975
H   46.585175   51.316170   76.328957
H   20.944759   63.904892   70.289452
H   60.226299   97.603195   12.252437
H   16.210209    8.099081   36.780769
H   63.349506    7.513291   42.762676
H    4.715524   71.387650    6.265246
H   86.164352   34.117020   80.055428
H   56.543133   53.944229   20.457220
H   31.266670   61.451408   17.616772
H   45.151295   17.291128   85.908005
H   43.111095   20.600439   13.377192
H   81.510368   36.028172    0.719813
H   26.837337   54.983887   72.577995
H   44.992523   14.412539   82.768456
H   87.987236   56.987209   48.719341
H    0.678880    6.551551   99.027893
H   56.781731   25.450996   96.868370
H    2.590167   39.820976   67.071274
H   38.798050   79.058601   74.889778
H   83.735352   64.911041    1.858773
H   18.440849   14.100573   70.991783
H   97.075172   75.008286   38.035858
H   60.152042   19.212343   43.495789
H   33.555382   72.742630   72.739639
H   58.051178    6.632494   25.174833
H   51.984520   59.555443   82.443153
H   31.290310   44.976063   41.631180
H   87.525658   42.783360   38.074085
H   40.341969   41.154778    3.552926
H   45.602592   34.181442   89.757935
H   41.445381    8.457201   93.928017
H    5.048464   62.784500   72.998215
H   36.188797   37.003563   15.932220
H    5.018345   89.488792   65.251274
H   36.364475   36.748325   32.511734
H   60.105515   72.057182   13.266933
H   83.297935   33.634480   91.625603
H   99.165924   78.862038   28.511324
H   34.225109   36.814213   81.133095
H   20.628922   99.221321   30.980972
H   22.157671   88.116287   19.887693
H   68.035919   81.351852   11.223145
H   77.590797    2.225938   71.545410
H   41.406197   98.807663   43.997036
H   75.419289   93.159264   96.461624
H   20.403637   17.946316   36.705856
H   46.976601   89.861549   94.721542
H   47.491600   49.994633   36.612404
H   73.704453   77.529335   81.678474
H   63.532490   75.298141   27.514437
H   56.758141   80.512680   53.560833
H   99.079308   23.195944   41.886063
H   50.001083   98.156532   58.789021
H   96.894691   58.196850   10.264737
H   58.266960   40.323139   46.766727
H   63.644470   71.158295   73.707916
H   11.195274   94.046135   10.124682
H   27.300104   67.849609   64.712730
H   37.797394   61.364719   68.692101
H   92.453018   32.697460   49.894482
