100
TIME:    1.252, STEP:  1252
H   32.654213    7.206573   97.999771
H   66.443581   72.627708   56.976009
H    1.275949   63.977917    8.639336
H   81.686752   81.067223   71.538078
H   83.957001   73.110847   31.757530
H    8.601891   99.851707    2.734945
H   87.353035   45.879307   88.360802
H   21.481567   96.916489   93.239159
H   22.851448   65.918686   21.277765
H   40.625343   34.360222   56.718880
H   83.797043   16.619160   19.150835
H    8.053478   86.447121    3.810746
H   63.621170   85.959526    0.690778
H   93.090233    1.217124   52.518681
H   95.729042   58.191143   90.589645
H   51.184326    2.226683   29.113754
H   23.407993   64.793747   87.347237
H   27.898941   33.816040   56.141891
H   64.760307   30.876345   29.322771
H   58.785095   79.226425    1.574652
H   89.981186   31.576889   23.263191
H   82.397697   45.752434   12.649165
H   69.028023   84.439781   96.528061
H    2.717155   51.697514   14.089420
H   84.805656   86.880196   45.799881
H   40.918232   90.303696   71.822159
H   54.118080   90.432816   24.810781
H   26.901360   14.878779    8.156539
H   38.394608   62.683170   97.990379
H   49.000164   59.852951   82.919243
H   65.351875   34.317688   10.339783
H   44.809147   17.922112   83.360176
H   58.547947   76.880150   10.587003
H   31.001854   58.984383   19.006510
H   49.651405   64.278542    0.967845
H   81.411163   82.835037   16.336378
H   99.882530   58.685402    7.118018
H   12.244684   36.038998   10.792305
H   94.434555   53.781487   22.128365
H   45.268799   94.974861   36.538731
H   49.680145   99.142311   71.841110
H   19.098564   68.049965   61.621174
H   22.025045   71.007812   91.906715
H   99.411263   33.753288    3.148323
H   48.053398   82.492813   63.247200
H   61.934963   86.796761   88.255470
H   49.300037   93.278427   38.321480
H   56.306278    8.273928   46.044582
H    1.629739   28.758667   94.530685
H   52.148235   49.805637   96.099083
H   43.449100   48.771233   66.617752
H   65.977745   47.563099   91.869858
H   34.850708   29.268250   30.155075
H   47.697750   86.777687   87.064407
H   41.088577   68.262802   11.030207
H   95.132767   11.216154   50.005768
H   75.622345   53.421120   75.063026
H   32.831726   58.651817   81.306473
H   89.019783   91.668091   15.366249
H   76.398987   24.020567   27.999718
H   38.678234   20.348457   16.780533
H   54.475220   16.291916   38.706154
H   59.156364   21.776596   47.666115
H   29.011473   48.605057   93.147408
H   82.016777   60.849972   12.157151
H   24.432808   80.032478   20.213362
H   87.117966   91.647980   27.509483
H   93.881432   89.139877   26.055441
H   19.301010   59.825592   81.709480
H   55.747551   11.114544   99.096771
H   82.275215   10.214605   47.131657
H   70.733170    9.973965   48.287689
H   25.359337   56.375820   29.645466
H    2.634567   70.151733   28.798515
H   22.536232   30.425146   96.307549
H   55.259289   87.814232   11.686376
H   80.628807   18.031725   13.187733
H   90.801559   68.856758   83.583450
H   21.563845   49.834812   31.648705
H   38.125168   40.767685   13.060185
H   35.382626   42.234173   54.817532
H   35.261593   52.404068   82.085770
H   97.015465   28.153345   49.146641
H   36.296497   19.296854   49.073647
H   91.366974   70.571838   26.384987
H   22.475689   55.044323   28.726082
H   50.772972   12.322334   83.243225
H   76.109894    5.056543   82.727974
H   81.664742   24.462606   17.956581
H   55.644608   57.766403   68.971748
H   75.259529   41.035915   59.901684
H   70.922279   89.668755   57.376549
H   65.614677   65.142929   15.772903
H   68.239143   89.175804   11.235002
H   34.946812   37.583321   44.855583
H   97.331619   46.290520    2.781361
H   63.224442   39.530041   65.185425
H   11.462066   26.897705   36.004517
H   49.069572   42.247173   40.176678
H   16.994858   46.545101   77.100288
