200
TIME:    0.787, STEP:   787
H   26.279238   60.659618   24.692938
H   32.839539   40.863735   12.103567
H    6.673046   93.080254   72.290886
H   36.280853   83.367226   30.195782
H    9.402504   97.592880   45.793957
H   71.823730   37.968555   49.358997
H   11.284278   54.916016   60.238972
H   15.146590   12.506061    5.656397
H    9.642292   79.305733   34.375359
H   91.605774   67.236481   74.496605
H   31.259405    6.279050   10.247383
H   33.039719   56.623058   38.805782
H   24.599613    5.162163   38.872826
H   78.549866   55.514759   68.624229
H   93.212845   76.155426   41.632710
H   13.356463    3.428577   42.523060
H    9.939061   33.337158   88.873909
H   23.573526    9.463427   33.782021
H   83.225090    9.898826   50.536175
H   91.796509   72.192772   16.266293
H   64.649643    4.063899    0.780235
H   77.851402   69.722496   49.495461
H   78.625092   58.564323   36.011246
H   20.194296   93.046249   89.870865
H   27.021858   34.703487   25.891926
H   18.208292   86.612099   88.890427
H    9.488781   69.772484   71.075043
H    7.064124   92.694351    2.170583
H   34.107178   39.903389   35.135372
H   68.331093   35.418015   79.704254
H   12.647340   74.302132   16.863581
H   21.979042   76.326645    7.070670
H   13.906525   20.755539   79.860573
H   78.322868   64.174698   47.851280
H   21.738106   67.198532   30.057842
H   15.193339   37.450108   85.748917
H    1.964266   62.622795   90.061440
H    5.858286   58.904816   90.573647
H   32.825676   26.813608   56.590481
H   84.836937   37.439091   42.329193
H   80.667068   79.670998   19.680454
H   40.565781   31.636597   23.611151
H   66.852921   75.216187   70.639633
H   36.062668   89.800987   38.311287
H   47.466854   92.984093   64.103523
H   33.362179   99.602905   48.636887
H   90.282150   99.413193    8.171756
H   76.798889   65.542259   27.983170
H    8.234817    7.994475   61.560707
H   42.542633   20.269999   82.571266
H   65.195953   63.572647    6.190850
H    0.228293   45.112896   75.302025
H   66.930504   78.779373   15.076335
H   14.265458   93.726990   89.803497
H   54.045547   64.219826   73.082825
H   98.293755   58.873745   96.559937
H    3.869428   18.815407   43.786961
H   73.384811   71.295372   95.430153
H   16.638916   85.044205   20.356129
H   30.451996   92.917641   56.882378
H   48.647961    4.704288   26.254557
H   99.767784   17.720686   53.259674
H   86.517021   36.537544   66.430679
H   37.379753   65.932739   15.880512
H   80.141472   84.233658   40.297718
H   17.282070   37.812218   42.695541
H   65.742775   11.623716   97.136360
H   94.278236   92.693565   98.101212
H   35.979141   13.245168   55.056335
H   42.088226   51.163841   50.953381
H   58.225201   86.052956   87.912857
H   16.767183    9.444082   40.935844
H   94.854630   35.119747   81.179237
H   25.686069   96.941315   76.497414
H   85.805588    9.726235   41.892799
H   67.139832   99.765106   59.303059
H   93.115585   50.313709   64.408318
H    6.295244   15.930511   29.262901
H   15.690765   54.061577   22.818005
H   60.032860   87.616280   68.320526
H   66.584045   20.857193   93.012680
H   50.688919   58.752716   70.947105
H    8.865602   19.666431   74.275192
H    6.836447   79.746269   11.679342
H   19.429440    5.108162   42.280552
H   40.077541   66.635666   16.396030
H   60.371143    3.923936    3.025382
H   70.782616   98.185745   32.073833
H   82.428574   73.388573   79.140686
H   20.704372   10.565841   48.847637
H   18.313364   39.614861   78.321465
H   80.245224   93.334732   10.303257
H   73.245354   10.692949   80.150978
H   35.499420   74.781677   84.124298
H   38.984879   49.526978   90.721710
H   46.619514   39.939091    3.342992
H   86.725685   95.359016   21.887100
H   91.887657   36.941380   53.775467
H   24.623268   64.298515   54.819736
H   76.715332    6.815457   27.383951
H   34.271450   95.550354   94.697273
H   10.912033   84.932182   62.847321
H   34.518196   17.179173   38.146408
H   48.159615   68.949417   11.884873
H   24.613632   20.284260   42.821884
H    9.078773   99.991905   18.280884
H   91.540390   36.885448   53.710674
H   61.527824   55.276402   97.590187
H   86.697754   33.184963   25.582829
H   21.938322   20.433722    8.214422
H   54.391361   91.313416    1.180705
H    7.957381   77.100525   96.741867
H   47.593571   86.622215   82.037354
H   61.371239    7.604713   60.848766
H   45.596336    4.746193    7.593084
H   91.715317   89.796227    3.611084
H   10.085003   16.145027   90.556870
H   37.995884   53.920387   23.044518
H   39.635494   78.250313   56.505737
H   85.218002   57.592159   69.748596
H   46.263618   25.394360   69.595596
H   94.687675   14.521999   64.278206
H   45.423958   98.752335   40.256432
H   96.018394   47.635204   93.911095
H   60.548775   95.408997   74.721970
H   67.762428   77.318039   14.969809
H   81.790092   51.743973   49.929626
H   63.463882   91.860100   39.622395
H   99.199219   32.683548   72.424683
H   94.258034   21.556696   75.820541
H   70.689774   65.654755   24.315296
H   60.704239   91.476639   22.226589
H   90.651588    9.207371    1.444578
H   74.098900   27.027443   56.439182
H   31.448254   91.479477   31.281227
H   47.789162    0.924827   75.623001
H   69.798317   87.958397   82.569305
H   95.884071   47.141808   74.555511
H   60.610886   51.983253   71.420715
H   43.744247   82.856148   80.258408
H   77.698067   46.982761   32.579575
H   32.056732   57.630909   58.998344
H   37.421391   66.828438   80.934181
H   32.648369    6.727181   87.188789
H   66.013512   51.625832   66.955215
H   65.982513   71.399445    3.648367
H   57.668419   94.382332   43.365273
H   27.716278   53.057266   65.686668
H   79.808441   41.954082   92.506676
H   26.898787   94.646759   69.527000
H   56.940441   70.599670   47.214737
H   56.813435   91.973801   31.010586
H    1.586869   11.385349   84.262993
H   24.369478   13.698434   62.435028
H   35.303154   68.325470   70.648743
H   79.740326   44.885220   70.890556
H   65.037003   77.288353   87.232712
H   53.822971   27.883492   22.539228
H   87.346481   99.673187   82.318802
H   57.547043   34.625122   99.232666
H   59.329044   62.186676   68.872009
H   17.921177   20.221601   30.805218
H   88.764992   10.720812   37.004608
H   31.353245   36.248871   47.796490
H   53.716721   40.649021   15.199206
H   21.338003   47.034637   59.311668
H   65.480743   88.719612   58.020470
H   24.110054   55.819912   70.631882
H    1.505880   26.391350   35.565304
H   51.435421    6.331820   84.243591
H   68.915100   12.138917   35.930168
H   27.266071   45.129650   59.137859
H   48.241772   53.949440   75.032974
H   64.490265   61.454830   86.930214
H   46.014252   90.921692   73.511505
H   17.794090   50.617489   23.816952
H   29.798424   70.009377    9.789181
H    6.577987    9.722519   71.874619
H   61.612381    8.663282   62.737617
H   60.280437   60.322731   94.101395
H   71.431160    4.791598   29.001478
H   30.260773   30.773769   89.585304
H   40.448784   89.589867   16.904121
H   63.393261   26.232506   97.313835
H   92.596672   64.609291   76.143265
H   10.711598   40.839417   86.691872
H   50.398834   95.155228   11.385372
H   64.141914   90.394600   44.666935
H   90.777046   63.612686   72.794983
H   59.560581   55.297764   72.613968
H   73.950462   12.926922   75.395271
H   43.168728   99.794418   17.657099
H   16.250546   30.537352   70.337540
H   25.547462   85.361549   44.336998
H   66.123199   29.822969   20.026991
H   76.663589   11.725677   22.072206
H   13.097249    0.474754   21.929365
H   13.012330   86.534790   31.540188
H    4.618940   13.142445   53.553307
H    2.302564   16.460421   90.149254
