100
TIME:    8.776, STEP:  8776
H   23.836880   17.220427   91.111343
H   58.104446   80.423019   31.459465
H   30.622286    5.284914   20.323318
H   82.949631   71.079094   59.121582
H   16.558641   76.192352   27.751362
H   91.925781   91.700401   47.862953
H   93.020256   53.936508   76.747795
H   30.110001   47.836857    2.409890
H   37.897041   42.516113   47.669788
H   35.056374   42.395359   51.336617
H   83.932892   19.363411   94.400871
H   20.885132   63.586132   68.243813
H   84.133194   30.787743   52.972054
H   20.546347   78.025795   25.097424
H   87.199287   86.117256   28.863029
H   48.659698   44.147972    4.555876
H   18.393440   62.433552   72.302254
H   88.731888   67.798820   95.307693
H   81.954407   46.518368   25.715687
H   56.072727   19.445921   13.843439
H   43.496437   82.538849   19.048925
H    3.744011   55.734253   71.920822
H   68.569954   23.251688   81.258286
H    3.640583   41.814667   55.292820
H   15.704673   90.179245    1.352045
H    6.227081   67.387009   65.022369
H    5.314268   77.669998   74.098557
H   92.048523   66.073715   56.862267
H    1.996211   45.319149   42.325218
H   37.503166   73.633347   81.055634
H   61.448521    9.017052   15.049889
H   19.879139   10.041866   86.825813
H   88.526382   26.388119   88.408340
H   48.909317   69.454681    2.033271
H   62.545326   95.203682   58.992840
H   35.519794   72.806213   91.836189
H   21.531925   83.138435   99.979942
H    1.264959   98.345497   41.738678
H   74.635368   90.204185   93.853134
H   36.592476   90.603462   28.511637
H   35.473557   57.306053   49.103237
H   60.620422   76.018250   27.991646
H   86.813446   16.132427   35.372524
H   18.967426   59.952545   38.804890
H   95.403076   85.642754    7.097003
H   64.841454   30.299911   18.814779
H   10.303967    2.106309    9.708717
H   56.723263   85.759949   11.586412
H   21.562256    5.622668   94.395142
H    9.992144   64.309929   69.915764
H   42.898991   22.377495   45.940796
H   31.643171   49.391682   97.946053
H   90.906654   72.894958   93.176041
H   73.457336   64.020798   19.076748
H   42.037056   27.691275   74.986908
H    4.526257    3.302223   93.871033
H   52.611191   36.318855   90.657997
H   72.576843   48.102516   87.504784
H   82.421867    9.585626   37.752090
H   79.892952    2.339764   14.000267
H   13.297146   70.445190   30.150082
H   87.440514   46.256302   98.267754
H   69.864380    8.424218   31.673798
H   45.672405   89.569611   88.870407
H   80.658310   59.920414   12.839312
H   62.225349    5.992564   65.089973
H   83.453323   51.769848   90.766830
H   74.147354   19.446316   85.746155
H   94.295837   19.198936    9.816473
H    8.261001   89.440445   83.229858
H   43.350651   98.280220   56.880379
H   50.584465   60.202538   99.323776
H   34.780045   84.213737   36.733517
H   37.014416   93.987099   81.713783
H   85.220276   41.237415   66.703873
H   33.127602   70.033318    5.416480
H   63.830887   66.216309   46.387039
H   44.287678   76.884636   99.113708
H   82.354134   27.740841   15.596376
H   69.142113   30.949625   64.860985
H   82.620125   20.074106    4.512595
H   99.840744    1.385532   52.803215
H   72.976555   53.883945   65.725883
H   53.923164   63.140602   61.864307
H   25.012711   99.930038   97.018982
H   49.313656   31.410187   51.215332
H   53.284046   65.265465   42.016792
H   97.171257    2.809813    4.584390
H   37.812748    5.539045   56.414436
H   90.422409   48.209000   37.937691
H   83.172752   47.308285   18.795189
H   27.634027   55.518341    0.747795
H   48.011967   90.838982   97.666138
H   95.432053   45.602650   18.550455
H    4.857870   63.630077   17.749506
H   18.783249   49.176941   14.157318
H   66.004723   71.315422   32.473198
H   21.337603   20.697216    2.701593
H   90.644768   74.699089    9.954830
H   84.322372   53.425800   52.320805
