100
TIME:    3.250, STEP:  3250
H   97.538483   23.979668   96.170547
H   10.865316   80.955124   83.009048
H   35.619316    7.722346   85.190041
H   82.022110   98.749199   62.021145
H   66.061096   33.259335   77.584091
H   77.624519   97.687126    0.603847
H   82.637413   80.793480   44.607170
H   64.442703   69.767410    9.789150
H   73.736732   73.819107   95.510567
H   86.027489   63.048546   34.956741
H   97.947952   97.013535   26.693357
H   31.797333   86.596512   61.590416
H   36.529991   65.077850    2.105868
H   94.160332   95.058449    4.565625
H   20.033028   79.724350   94.547279
H   70.848877   27.472321   63.263039
H   62.761482   96.933716   69.248672
H   70.593712   36.653267   86.871765
H   95.887596   14.693797   34.584675
H    4.960190   36.798214   37.607719
H   71.417114   32.669685   69.029999
H   73.961014   48.398407   42.510742
H   42.351845   68.190178   39.364822
H   17.081329   75.660339   65.701485
H   13.345836   28.418037   60.541786
H   31.756666   30.770819   84.548500
H   81.828049    7.377546   64.459023
H   58.315479    8.138702   74.200798
H   81.838669   43.957169    3.543679
H   25.612347   10.402507   41.753906
H   43.963589   13.489625   52.249290
H   70.964211   62.714523   98.395302
H   99.282440   30.696335   90.582619
H   15.421229   75.879677   34.832870
H   99.984055   13.245170   22.630989
H   55.129208   39.789547    9.468148
H   91.516396   85.513168   64.552605
H   29.663284   99.470375   51.784077
H    7.887861   10.605799   29.362761
H   57.079037    7.928750   93.737343
H   13.137480   67.696823   18.914289
H   39.529686   57.721710   55.488754
H   39.234989   82.989227   36.224667
H   71.824707   67.241852   98.502037
H   74.741524    3.664351   34.222591
H   36.158154   24.905567   96.365028
H   67.125290    1.583129   56.659813
H   56.412983   28.845072   69.669518
H   60.027878   63.283386   14.829688
H   94.041771   80.208351   56.354137
H   43.296665   55.877106   87.684311
H   63.076527   62.164429   60.706791
H   76.293343   40.853333   14.113937
H    1.433636   54.182426   75.230255
H   82.023209   43.406029   27.990129
H   97.632706    9.116049   81.989136
H    2.288645   95.769096   65.089485
H   84.054680   69.965179   29.843994
H   46.596756   76.088974   61.980106
H   44.551735   77.594208   71.172859
H   64.713203   27.432583   60.999088
H   83.565758   97.691544   48.303352
H   94.702599   85.508720   10.608231
H   66.212395   59.473694   38.903873
H   61.322475    1.271327   98.227043
H    1.692662   80.705757   38.349167
H   26.815250   60.721119   23.972673
H   55.866066    3.407606   21.571394
H   18.880989   16.262047   56.399410
H   96.231262   11.607689   94.889557
H   18.830059   74.269661   23.162796
H    5.990277   43.664032   94.571320
H   95.084946   57.546459   78.418449
H   58.669651   43.713295   10.051384
H   18.867563   33.271465   47.770298
H    2.487221   15.866774   77.245148
H   62.034847   44.858559   48.527409
H   84.671234   38.211002   93.924515
H   17.362898   43.972454   53.943497
H   40.139290   31.951385   40.930740
H   74.478195   62.904400   74.233780
H   85.175491   65.452530   15.014460
H   23.426268   61.505310   39.446262
H   73.744156   90.268280   66.578613
H   94.080765   45.595776   32.701286
H   76.494080   28.431530   67.473053
H   84.214867   67.051445   78.515808
H    8.271784   45.091431   61.943596
H   23.130314   13.217676    1.610517
H   78.995239   75.562576   40.397034
H   57.026001   48.921619    2.095821
H   18.759539   39.923882   95.452232
H   93.786011   25.032896   70.331932
H   61.353558   10.368748   45.949028
H    0.398396   58.615322   90.769096
H   62.358261   67.392342   99.581993
H    4.632955   54.191372   50.279259
H   18.796560   43.909485    4.033592
H   53.890892   50.859768   72.815880
H   41.080463   95.234444   84.656967
