100
TIME:    2.245, STEP:  2245
H   65.502106   16.143265   97.090652
H   38.821526   26.464685   19.613821
H   18.344343   35.417816   96.982719
H   81.853424   40.156883   17.106686
H   75.062790   52.704166    4.834190
H   93.204964   98.775917    1.075182
H   35.310169   12.930056   66.014778
H   43.433723   82.822845    2.064850
H   98.441551   70.445770   58.773449
H   13.490736   48.618233   95.600273
H   91.430603   56.574924   23.500048
H   70.156815   36.220764   33.126945
H    0.458618   25.881935    1.994667
H   43.922066   98.156136   28.085537
H    7.807148   69.494812   42.857559
H   11.257736   15.373345   46.687271
H   43.572800   30.462440   77.755020
H   49.119286   85.526176   21.715466
H   80.230476   72.535156   81.637527
H   32.034279   58.136982   69.182686
H   31.055145   32.720623   96.311111
H   77.610687   47.064255   28.095764
H   55.770042   76.363777   68.118103
H   10.456734   63.606968   40.341148
H   49.289421    8.125595   53.125862
H   36.365063   60.712727   78.747734
H   68.490868   49.156101   44.515926
H   43.115158   61.228725   40.979694
H   59.986176   52.775795   51.049553
H   87.077080   35.276443   61.859585
H    4.414198   23.366831   31.765152
H    7.507885   90.486000   91.433189
H   28.492039    4.227818    0.044281
H   72.957680   67.981918   77.173035
H   24.967754   89.215240   61.431816
H   67.748520   60.841846   12.922376
H   95.123962   22.319647   85.362610
H   71.199684   17.864201   80.864586
H   50.312004   32.500549   26.754778
H   51.739025    2.013362   14.665709
H   81.819984   33.215069   95.235764
H   29.853394   12.613708    8.273649
H   30.578337   76.962540   63.630829
H   36.000237   50.397736    0.238563
H   61.917431   43.313801   48.222023
H   49.123966    5.736713   92.285896
H   59.269115   46.928802   47.006378
H   56.359310   18.497725    7.485764
H   30.653524   46.517933   54.921677
H   72.971367   64.919273   26.646496
H   43.373341   52.903419   77.087769
H   14.235682   55.420544   26.681713
H   55.449821   35.026001   72.484642
H   24.704624   70.580223   30.881292
H   62.036934   55.314411   19.455824
H   96.375229   10.172562   16.201706
H   38.574650   24.768730   69.505608
H   58.889496   64.875061   55.729935
H   67.334190   33.626125   39.133408
H   10.872681    0.345077   99.757454
H    1.316556   74.167915   39.357601
H   19.233093    7.047375   93.774521
H   26.509361   54.061302   79.542404
H   97.199097   54.006737   66.192039
H   21.429272   81.539948    4.633290
H   63.431343   30.667336   78.927269
H    7.447699   25.978823   75.450699
H   25.288429   45.931519   73.526581
H   68.794212   88.474953   19.429428
H   75.866272   61.061638   97.005798
H   50.743950   42.650169   35.221027
H   88.856689   77.017838   20.989687
H   60.613541    7.260685    4.182568
H   80.784691    7.310884   69.781532
H   70.410667   31.838068   71.584091
H   78.732521   51.456871   44.869228
H   70.787170   31.964937   30.753778
H   37.454510    3.925102   38.423313
H   69.166977   46.924458   42.725883
H   89.426247   86.686783   27.512337
H   54.815037   52.507214   14.167341
H    9.767530   58.889114   99.051491
H   59.844151   44.728729   43.724979
H    4.605123    4.269137   58.373901
H   43.017014    8.457338   30.124771
H   99.619385   91.516991   97.682732
H   17.093206   40.123138   30.593672
H   92.095230   25.554245   72.400612
H    2.271748   69.174202    9.832771
H   67.851181   16.909096    4.472186
H   15.897308   94.655518   80.872025
H   44.396328   64.348930   76.298714
H   29.327023   94.901413   92.594223
H   64.216560   49.409214   78.186790
H   17.776482   48.636780   67.674461
H   79.349365    7.079180   51.491837
H   84.405014   96.516624    8.077358
H   15.108010   35.352509   20.114834
H    1.766951   46.527607   56.996536
H   78.663406   21.038376   81.459991
