100
TIME:    9.963, STEP:  9963
H   43.564606    8.367501   90.024612
H   25.322319   44.745251    6.303353
H   51.025661   90.682442    6.388960
H   83.148865   22.175291   94.056168
H    5.922262   71.335373   95.568810
H   73.523804   90.414436   65.415977
H   30.809654   34.087868   69.572754
H   36.814148   50.527340   93.423744
H    8.718315   28.390083   72.953102
H    2.631488   59.438923   97.812477
H   73.520966   67.124039   80.059853
H   75.582390   23.083473   83.752098
H    8.442156   58.940742   35.012543
H   61.773285   74.367134   15.428303
H    1.616829   80.088562   71.777855
H    0.931280   40.328598    6.024465
H   22.941933   40.945335   80.359543
H   14.120200   10.039305   54.158981
H    0.446934   96.311935   88.263611
H   24.095669   94.237274   94.659996
H   73.057678   64.370979   86.828934
H   17.542862   57.310013   70.836807
H   52.721420   13.597830   47.330238
H   93.351379   56.014618   67.136475
H   73.250595   96.044067   10.113964
H    0.627812   32.394272   53.319714
H    2.957952   28.326200   97.644394
H   91.892860   21.478870   96.094902
H   27.807079   53.013157   86.216110
H   83.019081   44.255386   75.418648
H    8.161513   15.457581   21.138245
H   94.827347   77.243057   76.939278
H   72.138710   39.541489   95.342674
H   99.061951   60.673180   52.025688
H   33.004356    5.331066   31.210241
H   38.703495   65.780746   88.105080
H   35.380524   39.669197   93.510880
H   52.201405   76.628990   25.502472
H   24.529934   64.339989   78.823906
H   24.790543   79.480331   21.902384
H   54.350769   98.038864   77.068443
H   60.586029   80.679001   88.577629
H   97.028717   23.255043   21.110767
H   43.181385   79.877785   54.861530
H   92.409485   38.768986    8.656386
H   49.527107   52.939800   23.637148
H   19.585072   66.664734   21.107058
H   56.795712   97.985672   85.031174
H   56.256012    7.319464   47.014374
H   34.905998   82.385887   86.920174
H   46.757786    8.075829   52.400543
H   89.330505   39.246651   20.026747
H   15.525322   79.777588   24.236465
H   45.968987   44.649826   71.456062
H   47.526253   31.714231   85.075394
H    6.004663    2.053615   53.462753
H   27.863037    2.067993    3.551593
H   84.190628   36.004997   56.931419
H   76.042259   59.745293   46.625813
H    1.564566   93.576889   80.239174
H   88.177826   15.245882   37.609394
H   45.311577   35.207870   44.561852
H   50.479130   27.474936   50.300583
H   27.181099   96.035660   56.646767
H   27.770802   65.115608   23.379393
H   89.307312   46.983299   35.275173
H   88.217964   92.809357   48.076183
H   92.153069   87.331612   42.491623
H   53.457916   33.908691   35.370998
H   32.368317   49.058903   80.712265
H    5.652758   17.512783   42.644203
H   52.837608   20.790428   86.329376
H   57.386337   25.499479    6.295994
H   10.887592   18.862415   11.186281
H   42.397911   42.985241   56.702930
H   61.192429   46.108097   25.546158
H   71.635689   63.478390   67.440971
H    0.051882   99.273842   64.671104
H   39.274994   24.254246   28.845369
H   10.931001   66.287392   62.599892
H    5.857503   32.354168   75.458382
H   88.911278    9.091294   53.498512
H   48.055527   73.734901   78.769058
H   35.587704   64.714798   53.450584
H   67.216736   25.674767   81.953232
H   21.991428   75.012917   33.644291
H   32.561161   78.960579   98.617363
H   16.259983    7.828486   92.282974
H   62.445316   39.447914   46.706306
H   85.475952   99.369614   80.368973
H   31.750326   11.403703   43.862450
H   15.460009   44.791992   23.361139
H   24.100880   26.454206   89.458672
H    6.206695   17.318176    4.643041
H   84.335938   57.305649   45.024086
H   16.824585    2.304938   52.847061
H   71.786308   39.433746   64.206787
H   19.046412   79.429214   78.866478
H   34.098534   79.824837   10.531300
H   58.050430   22.968822   37.972683
