100
TIME:    0.409, STEP:   409
H   89.663734   84.513985   98.771561
H   89.893120   26.920048    3.800078
H   86.791626    3.329311   18.537537
H   81.545258   15.799212   17.744234
H   91.507675    5.540674   54.615364
H   21.674076    0.768504   19.249937
H   31.535248   88.954994   22.437105
H   87.739700   23.985905   70.641777
H   43.573997   46.969757   74.342827
H   63.663261   22.258579   23.705584
H   62.210846   82.699615    0.352900
H   40.230671   44.191643   63.815926
H   17.246231   36.962433   84.477501
H   34.830570    3.816226   88.364861
H   85.477104   33.489807   31.111677
H   85.078751   75.963692   99.089340
H   91.183571    9.044815   10.593551
H    9.884633   74.810928   85.366989
H   51.633080   95.510086   84.910416
H   81.578133   96.956573   44.090828
H   40.005905   15.499756   46.141548
H    1.565314   44.639771   84.430122
H   80.283287   91.295845   20.648174
H   81.040985   41.587070   76.699493
H   14.955503   53.737743   39.578751
H   44.783611   15.422675   50.837448
H   26.809874   25.474991    8.082243
H   98.031273   75.529922   80.294174
H   20.064606   86.199852   37.838013
H   16.676569   80.716995   15.902958
H   32.190647   58.719627   77.047081
H   91.581970   41.210861   61.400902
H   99.166565   38.557426   34.642906
H   95.383049   36.240204   54.520515
H   70.605492   28.003036   49.632889
H    8.115834   16.614744   19.237020
H   19.027771   89.556984   40.692822
H   47.084724   51.468357   51.302540
H   32.332745   71.777046    2.925394
H   24.670544   73.894585   70.214287
H    7.291821   70.213066   51.976498
H   94.862572   30.213671   22.015509
H   14.764066   65.952591   31.015953
H   53.241791   19.625925   20.721760
H   21.178097   15.754697   91.106384
H   72.727852   70.892876   84.922188
H   40.398731   47.804867   31.118109
H   56.261257   99.594208   93.884567
H   76.984306   98.576645   28.158396
H   34.467823   36.974636   55.057877
H   43.513416   30.157618   57.729313
H   25.009130   25.786465   47.212570
H   17.363245   24.380249   79.116585
H   67.216537    0.528600   49.864155
H    8.198490   94.359695    3.876689
H   94.077988   12.102104   78.703476
H   22.180954   77.745354   94.886650
H   95.603943   38.261848    3.019718
H   22.534126   56.050003   80.084808
H   32.028816   59.225983   51.976646
H   85.500473   59.548935   82.506653
H   84.394928   24.138443   76.849686
H    1.974486   79.262627    5.498979
H   71.125557   44.019341   16.035475
H   48.556732   28.177685   33.650307
H   76.219887   21.940510   70.369133
H   54.753960   62.500393   86.808395
H   52.113396   40.928757   85.755165
H   77.287468   20.398186   34.580814
H   38.671707   68.716454    0.870699
H    9.044313   67.576241   57.242100
H   40.243069   37.951683   86.566811
H   80.324005   98.077003   51.262005
H   21.188545   23.497038   78.900520
H   81.890915   29.225657   32.403370
H   35.327824   33.785370   68.408005
H    4.089108   91.095085   98.270813
H   51.195892   23.976883   37.027950
H   81.157387   52.304218   22.248951
H   79.467361   86.679558   85.685516
H   18.885624   33.512951    4.433926
H   72.011467   46.898636   52.579582
H   43.674397   14.084046   68.855103
H   78.305695   47.160252   26.072517
H   32.415314   23.300316    8.104491
H   41.879765   24.077091   70.185432
H   94.470894   73.615288   43.045849
H   62.539261   72.548515   91.487785
H   64.170845   71.399757   24.854450
H   30.175037   92.457184   38.833370
H   40.760532   95.516861   42.099072
H    8.548622   26.266535   41.316895
H   11.526310   39.885826   50.556297
H   86.759102   38.041481   54.394527
H   49.520771   13.093357   25.484749
H   27.703339   79.580376   46.323631
H   30.137533   91.152199   13.667028
H    8.366868   19.720062   49.491539
H   89.228355   38.613331   10.792355
H   64.641769   68.198982   58.293564
