100
TIME:    6.482, STEP:  6482
H   78.971268   27.589838   93.211563
H   21.458313   56.115322   86.816444
H   91.186310   40.244576   47.254841
H   82.564590   65.591949   84.862549
H   37.112366   92.318314   89.952271
H   27.501095   94.185661   20.680096
H   13.249112   99.032356   97.353920
H   10.413879   49.376659   13.037564
H   94.287941   63.075516   92.067787
H   97.712929    9.456041   61.514256
H   97.315186   27.059683   15.370800
H    8.439568   48.599705   31.532673
H   30.436935   69.611107   80.937431
H   34.130470   85.096535   50.523922
H   59.336372   91.028648   39.182934
H   40.897247   44.789650   94.978027
H    2.863153   10.705516   63.470375
H   39.681767   79.425018   74.824745
H   46.224377   50.282524    4.860160
H   17.881889   68.157265   57.657310
H   79.625656   10.913227   81.309624
H   83.815994   52.688934   67.276108
H   99.198158   41.904533   46.893356
H   16.786350   14.371798   25.663424
H   97.751534   72.105606   84.410927
H   16.997709   35.035461   80.878700
H    3.128394   73.029373   28.580183
H   85.609360   58.997551   81.033981
H   52.115868   37.189434   50.764130
H   49.541401   30.410515   98.689468
H   71.164528    3.309557   96.543800
H   75.034729   73.419006   99.192879
H   26.940113   94.228813   81.746704
H   51.982002   79.686142   98.675781
H   19.637238   68.891701   19.420664
H   36.106472   93.126472   99.046944
H    1.507565   67.150513   19.221411
H   96.080482   40.330135   79.857948
H   71.466492   40.183830   16.158377
H   52.660954    5.359730   48.025166
H   92.253281   78.595375   95.058815
H   53.946350   67.022308   10.877965
H   67.071381    2.371441   69.674828
H   65.444626   21.442892   14.511624
H   94.390434   76.144333   10.792335
H   94.454552   86.551071    9.495054
H   92.375290   77.350967   87.685661
H   56.585590   62.132477   69.647354
H   54.503098   95.611366   85.904617
H   61.830624   29.392965   30.310099
H   43.056507   43.848511   21.756973
H   20.148632   62.259148   48.533302
H   43.329075   59.593567   26.403837
H   26.584129    1.440232   17.849018
H   24.688698   26.656155   55.482227
H    1.669082    5.715288   71.964218
H    7.183422    2.510905   72.479561
H   43.392242   64.742622   46.594589
H    1.499278   12.650325   13.859985
H   31.273697   26.016064   79.247093
H   68.590141   77.127823    9.008926
H   68.859077   67.608536    2.062640
H   14.123003   64.963051   88.980255
H   88.147079   77.073303   51.155445
H   89.604370   43.137821   99.209007
H    3.147958   20.033501   29.450270
H   67.505478   72.460114   80.012833
H   32.609810   88.249367   76.079681
H   79.964577   84.031158   53.693996
H   61.706146   74.168877   88.083893
H   16.199417   54.366013   84.393257
H   39.496548   36.400146   31.203144
H   84.352371   97.681427   95.547913
H   87.515343   39.173489   18.015081
H   74.693230   37.882549   92.777237
H   78.897285   23.007763   59.771904
H   55.486904   64.768211    5.700814
H   36.516476   26.877794   72.417366
H   72.347282   34.479046   90.000664
H   81.641891   55.914589   62.491081
H   37.715340   96.340927   67.403015
H   27.701387   86.507553   44.720119
H   27.875946   15.519988   47.256821
H   96.101189   66.837914   71.385857
H   36.710106   43.432861   19.395050
H    2.104664   47.149605   91.912842
H    0.072838   32.058586   32.630226
H   60.277397   86.377808   28.369568
H   90.202255   33.264275   75.176399
H   93.242569   42.589703   55.931168
H   89.292778   23.441597   70.349777
H   57.901257   82.987900   57.031288
H    0.962295   22.011105   20.267588
H   73.726753    6.428486   63.870300
H   44.522835   69.112350   65.035614
H   29.308243   39.763947   32.645370
H   48.091454   39.668243   64.403595
H   25.765566    7.188928   48.754478
H   99.925713   64.793053    2.100856
H   41.832577   12.296696   73.309441
