100
TIME:    9.611, STEP:  9611
H   67.369293   40.646950   90.346878
H   35.043076   25.669811   84.109550
H   44.975124   65.357735   10.521345
H   83.089783   36.678154   13.350427
H    9.076437   43.121017    5.112865
H   78.980835   90.795784   30.555058
H   49.256763   10.318095   42.045895
H   64.480652   20.075924   25.743423
H   17.371147   62.233490   95.108864
H   12.247065   54.384724   84.030251
H    6.263196   52.960464   13.967093
H   89.015495    5.440371    8.807877
H   30.888184   80.247231   69.992249
H   79.202484   75.452095   88.641136
H   97.341194   11.530922   88.707542
H   15.085323   71.115707   35.244202
H   51.247597   17.664330   48.315598
H    6.592612   27.167488   66.359940
H   94.963058   81.546799   69.706482
H   33.578335    1.713514   70.694176
H   93.945862   99.411995   96.384109
H   83.796280   56.842728    0.812871
H   57.421501   16.463873   57.368744
H   26.057049   51.803680   93.277588
H   85.840439   23.959953    7.515697
H    2.288319   42.771225   86.444115
H   33.311409   42.959408   90.661972
H   21.593668    5.048696   84.461113
H   20.153271   21.077093    2.855575
H   69.521523   52.967300   47.435249
H   94.308281   83.892578   48.987366
H   72.601761   86.970108    9.525627
H   47.343941   65.295883   63.631737
H   84.189392   92.931969   66.855278
H   41.764610   31.982399    9.793200
H    8.105421   38.208408   89.211525
H    1.619370   52.559822   65.774551
H   66.749519   83.068932    0.663750
H   39.389065   72.009911   12.935230
H   57.943913   12.432752   94.207962
H   78.407898   85.959274   68.775475
H   90.250893   79.293259   70.616692
H   93.999420   21.142860   95.685814
H   65.656532   73.969582   20.446247
H   22.971075   52.701603   78.552109
H   54.068367   46.225933   22.207094
H   16.832386   47.519840   17.727297
H   56.774227   94.360184   63.251392
H   45.967812   36.467052   61.089378
H   27.518057   77.025536   11.531364
H   44.797337   41.911034   51.739899
H   72.223572   71.910309   43.133888
H    8.223991   77.736572   44.681023
H   54.119621   50.394211   55.922859
H   75.552620    0.866369   82.083694
H    5.566248    2.423884   65.445663
H    5.548514   12.225206   70.073509
H   10.401294   69.246696   65.997826
H   48.279079   44.870049   73.649513
H   24.792278   66.522690   90.250893
H   65.973724   31.615633   65.052895
H   57.804741   38.484238   60.489830
H   26.553288   51.449066   74.416794
H    3.009543   94.118179   66.204010
H   13.799243   93.227913   90.598900
H   10.930876   64.482323   14.462132
H   16.459938   80.638458   31.081970
H   16.468445   67.200752   25.663986
H   35.913239   59.201172   57.448879
H   25.219391   31.379946   81.458847
H   16.831898   41.465176   46.865883
H   81.824364   32.477928   60.527004
H   80.337021   42.910381   15.322117
H   18.635395   41.139820   32.099983
H   25.441889   42.466930   30.013968
H   52.869919   23.547321   49.230362
H   39.666939   93.943283   61.198555
H   83.514290   22.289070   45.230339
H   22.396330   25.288181   24.916414
H   28.192551   85.462196   92.925087
H   98.966942   28.712564   54.419807
H   62.496391    6.806069   82.947258
H   25.790033   67.848183   45.246563
H   11.370984   34.593704   85.601067
H   84.355896   47.693565   16.075472
H   30.093723   62.084297    9.200257
H    9.051882    4.553921   81.832695
H   10.599491   35.995461   95.929947
H   55.140629   59.047035   49.585213
H   16.597113   13.852654   67.784500
H   17.345053   92.396637   36.428856
H   89.415573   18.318563   16.655329
H    1.537250   15.891951   62.237968
H   74.173622   96.112106   77.857536
H   90.421387   88.834541   36.935219
H   87.750763   16.204531   71.028214
H   99.726738   19.233910   84.450439
H   19.725855   62.011066   85.934837
H   50.867088   78.304817   40.015919
H   36.187393   32.001659   71.882462
