100
TIME:    9.450, STEP:  9450
H   78.257233   55.411507   90.494278
H   39.489639   16.944965   73.958611
H   42.207691   53.774559   12.411442
H   83.062759   43.311150   22.175474
H   10.519114   30.216156    9.478052
H   81.476807   90.970207   14.610686
H   57.694180   99.446220   29.455486
H   77.134933    6.147665   40.526405
H   21.328835   77.712936    5.242979
H   16.645109   52.073002   77.726448
H   21.239044   46.482239   29.475405
H   95.159615   97.370461   20.267605
H   41.154587   89.992821   85.992508
H   87.174362   75.948341   76.389748
H   95.385689   25.912239   96.450951
H   21.559250   85.197311   48.608459
H   64.194221    7.015669   33.659134
H    3.149577   35.001793   71.941483
H   92.454803   74.793427   61.222660
H   37.915577    5.132574   59.732536
H    3.499914   15.440168    0.754482
H   68.361053   56.628998   14.523453
H   59.571083   17.772661   61.974991
H   41.016666   49.877655    5.234521
H   91.598862   36.728470    6.327285
H    3.047812   47.517502    1.594446
H   47.195251   49.652592   87.468307
H   35.178268   97.533768   79.139977
H   16.652523    6.470177   10.465813
H   63.347923   56.952011   34.636024
H   87.972542   69.454758   61.725174
H   62.436085   91.419128   24.430214
H   36.002747   77.075592   49.127586
H   77.386887    7.686602   73.638130
H   45.771431   44.172371   99.997467
H   94.110153   25.597429   89.717598
H   86.176849   58.455818   53.088337
H   73.404625   86.014473   89.301735
H   46.185429   75.518028   28.536896
H   73.108414   27.505547   81.541397
H   89.411301   80.434235   64.982384
H    3.819273   78.661346   62.398487
H   92.613861   20.176777   84.055962
H   75.935219   71.267250    4.705165
H   36.938507   59.056561   64.776199
H   56.145477   43.155102   21.553007
H   15.573449   38.763058   16.181440
H   56.764400   92.701935   53.289616
H   41.262070   49.800602   67.511658
H   24.138914   74.573784   22.788540
H   43.900654   57.386795   51.437729
H   64.399094   86.849289   53.702461
H    4.884462   76.803040   54.032318
H   57.847610   53.021614   48.818184
H   88.371498   86.757690   80.715332
H    5.365723    2.593241   70.926483
H   95.341599   16.871010   54.761116
H   22.389349   84.450996   70.144676
H   35.580578   38.066315   86.008995
H   35.416126   54.147488   94.830116
H   55.816883   39.102352   77.603996
H   63.518944   39.982803   67.774437
H   15.620749   62.432030   85.455597
H   91.954346   93.241150   70.574417
H    7.408843    6.086620   75.605873
H   20.820953   72.486137    4.942248
H   29.377697   75.071655   23.308468
H   27.589767   57.993172   17.967255
H   27.888544   70.769608   67.546570
H   21.949570   23.293833   81.800323
H   21.944832   52.420673   48.796822
H   95.082985   37.823631   48.726414
H   90.834351   50.873661   19.450542
H   22.179134   51.328838   41.666237
H   17.686811   42.229862   17.806799
H   49.063316   13.228713   60.063026
H   25.044575    7.878110   58.342682
H   75.950218   32.815880   36.338440
H   14.676208   25.761089   23.119364
H   36.087975   94.232491    6.795319
H   95.815041   27.046946   44.797050
H   50.415741    5.760912   96.417152
H   15.606543   65.155678   29.913288
H    0.294501   20.816227    0.306637
H   92.195114   57.764664   31.682051
H   33.799603   56.169876   98.019745
H   98.298973   16.260185   74.155617
H    8.010473   48.878212   97.598022
H   51.799564   68.011406   50.901985
H   30.831644   20.477051   62.028954
H   10.756033   83.702499   33.028831
H   77.503204    6.210051   13.588181
H   91.216827   11.060919   49.787590
H   59.522072   86.413193   65.606148
H   93.204788    3.255418   33.235481
H   74.452835   22.561766   79.344025
H   12.506003    9.994807   93.709610
H   20.036623   54.045330   89.167809
H   58.536797   77.609581   53.501781
H   26.187538   36.132542   87.391388
