200
TIME:    0.484, STEP:   484
H   16.968840   61.665211   19.511826
H   30.139067   36.440285   99.802605
H   13.023623   79.817993   57.366508
H   26.067398   79.825691   38.119156
H   12.619533   89.913391   50.150368
H   81.680847   46.192451   58.327263
H    6.894347   55.131004   54.374172
H    8.356530   99.422882   16.411366
H   97.337624   83.848236   41.767040
H    2.271974   71.481041   86.448128
H   20.698374   99.806587    0.672300
H   31.786774   48.535553   24.368326
H   17.162853   95.105721   51.291313
H   92.870888   54.236385   54.023495
H    7.841535   73.822914   42.378235
H   22.188251   15.912945   49.059410
H   95.685867   19.146225    3.585468
H   30.768135   94.896805   39.176388
H   73.143738   20.868290   46.075737
H   90.832527   76.353844   28.012074
H   61.013329   88.938522   14.661760
H   84.596962   58.140846   61.171890
H   87.698540   60.767380   43.281563
H   13.776422   90.283760   90.820976
H   13.852019   22.517324   36.703777
H   18.459112   73.164902   98.897804
H    3.620906   63.692692   58.892349
H    0.109902   80.194954    1.373304
H   21.345402   49.113228   36.909607
H   82.023331   27.300791   90.185532
H   13.042931   61.643223   16.493130
H   27.488995   69.225082   99.610420
H   21.227699   14.235870   76.159531
H   88.351051   63.844124   42.555161
H   36.279148   79.718735   32.363102
H   25.090935   44.358643   82.274422
H   93.267700   69.162613   87.786720
H   20.845833   51.066975    4.196732
H   44.039764   37.663326   49.855324
H   87.742752   38.685101   54.165131
H   80.576912   93.825577    9.623191
H   25.484209   37.990356   32.596138
H   72.308548   82.176735   59.388554
H   36.737686   75.084663   27.474920
H   37.113876   83.739578   53.169151
H   37.626122    7.488441   45.341549
H   84.572235   14.258060    1.528929
H   84.175545   65.546883   38.875931
H   96.516678   19.492702   61.342251
H   53.385693   18.902624   95.389679
H   72.403854   67.407768   18.198795
H   11.810814   39.897686   68.787636
H   58.757050   87.441338   11.118982
H   18.775131   87.332809   85.316475
H   66.870895   70.958450   82.882149
H    2.177748   66.339043   86.638092
H    4.734139   17.668800   47.037220
H   70.074448   64.251602    0.899535
H   23.032518   79.190964   13.027902
H   37.459934   94.619057   62.483643
H   49.629280   10.615900   35.107613
H   94.321404   17.002901   50.936409
H   78.169449   30.261103   76.653046
H   30.037926   65.500450    9.115303
H   75.270706   79.716583   27.907164
H   29.168287   26.040716   37.249161
H   77.060890   18.015205   90.876259
H   95.975029   92.004677   92.102333
H   25.201601    9.150558   58.891457
H   43.832409   45.882748   50.969563
H   58.358124   80.812317   79.808014
H   25.282932   17.408251   43.056835
H   85.237930   29.881420   91.325317
H   15.814509    3.601407   67.675941
H   82.116104    4.821372   56.139847
H   59.481148   10.462327   61.283035
H   94.396271   39.033737   68.694221
H   17.517773   10.413046   39.623970
H   13.385616   40.564175   29.534313
H   64.599487   89.306137   82.690094
H   53.724026   25.978201   97.511261
H   37.365398   64.202522   80.314140
H   10.047751   16.342775   83.140587
H   16.717241   69.838295    1.804097
H   30.219330    1.904040   50.867386
H   31.541534   77.237152   22.703522
H   46.791023    3.292551    2.330714
H   73.302376    9.462961   20.645336
H   73.154007   72.651138   78.049561
H   22.222008   96.983894   52.181118
H   31.014458   36.999165   79.669189
H   82.355812   90.676270    3.691870
H   58.850773   14.110229   88.780579
H   49.086475   85.667503   75.804466
H   31.307648   53.625633   78.102104
H   59.167458   33.164635   17.589277
H   82.615471    5.839705    8.837675
H    0.186985   32.230240   50.903782
H   31.489037   67.333786   53.745949
H   71.446953    1.892246   27.309977
H   20.752592   87.172729   80.429420
H   99.645607   80.348068   64.518684
H   28.237288   28.252825   33.912518
H   33.600487   68.389984   99.851852
H   25.015291   24.266174   32.998287
H   97.082802   14.826708   32.467232
H   77.216805   33.126492   55.123672
H   63.313618   43.642738    9.306526
H   78.997459   37.009682   10.931232
H   12.204883   24.658365    6.731463
H   50.404823   93.946449    0.967523
H   95.791412   69.481140   93.290489
H   52.856171   83.106110   88.628029
H   62.397636   14.137009   68.661865
H   55.707741   92.129028   18.217339
H    4.080710   98.659309   89.941864
H   22.542927   11.878474   87.024582
H   39.533169   39.006413   29.101189
H   28.128782   66.874405   71.480392
H   77.221809   51.544735   58.444916
H   43.101204   23.380863   79.524376
H    7.760978   21.699848   55.365456
H   38.118965   11.531694   31.267408
H    0.482336   58.538368    7.180061
H   69.615288    2.910741   84.743217
H   56.661617   69.028259   20.820211
H   89.321632   50.329208   61.631485
H   70.091545   89.483665   37.063335
H   95.470436   43.651440   79.329750
H   79.571762   22.992844   70.658501
H   58.458534   76.473541   12.735958
H   72.334435   88.471420   15.081105
H   91.640999   94.465981   99.190186
H   88.956238   19.258953   52.710400
H   16.479954   96.958221   45.204636
H   55.859329    1.313699   80.086906
H   69.296677   87.186287   67.485420
H   93.299583   56.602467   79.343056
H   52.690979   47.745895   71.492378
H   43.580116   97.387535   88.677643
H   62.697399   55.893234   22.791809
H   46.005569   48.424538   51.934925
H   47.161766   61.252033   91.154236
H   46.532478   17.695318   82.167763
H   51.771084   61.674820   57.047245
H   54.880333   66.179611   18.160149
H   50.502129   95.709251   45.534809
H   35.989876   64.336082   67.425072
H   71.708221   54.604897   95.518829
H   17.239899   91.338707   80.865921
H   67.619759   65.453812   49.502171
H   44.058594    0.358329   40.505920
H   87.510864   22.715023   94.899155
H   16.359993    6.743402   69.922890
H   23.288059   60.322872   65.167686
H   70.745476   44.133915   61.567749
H   61.865337   68.201035   83.644943
H   49.515106   32.745010   15.440556
H    1.214395    0.814951   93.556007
H   60.944096   46.988129   87.604782
H   56.352722   74.496513   76.928307
H   32.147991   21.791828   33.430161
H   75.722343   23.931637   37.130596
H   20.231047   27.347645   60.759384
H   56.617912   30.367704   12.222017
H   16.117592   56.675610   60.968006
H   70.698265   93.620430   54.808353
H   23.845364   42.034050   58.102436
H   97.388420   27.376715   36.280777
H   37.607948    8.618386   87.655670
H   74.703613    8.535544   35.955597
H   37.733742   56.384193   58.207397
H   42.387375   66.969864   83.558548
H   68.221359   68.701622   79.900314
H   60.097168   93.201035   87.758553
H    8.440717   48.978844   23.520838
H   32.911137   60.543358   97.114967
H    3.892509    9.433556   68.000198
H   69.361580   15.707341   66.281052
H   74.693626   57.072472   89.827049
H   76.963074   93.933220   36.046158
H   24.149199   30.403896   78.523788
H   54.401089   89.911194   10.900620
H   56.794495   25.671917   86.166786
H   88.678329   77.751343   77.391586
H    4.368482   38.282669   85.175392
H   39.848206    0.345037    4.671598
H   78.698730   77.560005   34.064293
H   99.552284   62.261494   69.332047
H   54.050629   56.946011   68.785782
H   59.476505   22.951637   77.559029
H   45.652657   91.560120   21.516493
H    9.520289   23.328873   63.395584
H   30.840693   73.269012   38.230625
H   76.521255   43.356762   21.018135
H   75.923843   10.982174   26.223454
H   11.083175   92.212669   11.702374
H   21.818296   92.556786   40.085411
H    8.659514   12.294626   67.104530
H    5.462851   26.726131   94.358871
