100
TIME:    6.344, STEP:  6344
H   88.303787   40.244987   93.337906
H   25.269127   48.636883   78.115639
H   88.813171   30.316227   48.875187
H   82.541428   71.277374   92.426270
H   38.348419   81.257004   93.694122
H   29.641552   94.335167    7.013492
H   20.481609   89.714577   86.562141
H   21.260406   37.438320   25.708630
H   97.680244   76.343613    0.753923
H    1.482352    7.474337   56.110996
H   10.151596   21.506918   28.663639
H   13.707008   41.682438   41.355797
H   39.243027   77.956047   94.649834
H   40.963509   85.521889   40.021679
H   57.660225    3.355472   45.819088
H   46.445801   56.859596    6.433323
H   13.960469    1.578057   50.907692
H   36.730610   86.140137   79.608925
H   44.075497   44.492867   97.589783
H   21.599525   71.088417   48.261620
H   87.814774   24.651951   85.055687
H   70.585800   52.505737   79.028091
H    1.040760   43.026878   50.841568
H   29.608562   12.720919   35.912655
H    2.687158   83.048996   83.391762
H   17.626791   39.115280   93.856209
H   15.028309   78.765335   25.841703
H   97.253952   52.556175   76.473007
H   49.115227   24.669174   57.287628
H   44.249744   33.825981   87.718704
H   65.733894   90.934471    7.461852
H   66.321289   77.232452   11.968163
H   17.219616    4.325531   69.314575
H   46.151283   92.333054    4.489314
H   23.071655   79.340248   11.024289
H   24.110571   82.317848   99.480721
H   88.271126   72.204224    8.347695
H    1.784621   42.855938   70.119026
H   77.290894   43.190788   29.531233
H   65.658600   18.279022   37.167057
H    1.684696   73.859627   91.807594
H   65.576202   66.481140    3.832853
H   65.883759    1.543585   59.706833
H   74.257034   19.126608    1.018952
H    6.361126   81.589706   98.983017
H   96.235985   83.918930    8.934408
H   91.297165   69.846207   86.361168
H   56.578220   60.711121   61.108692
H   50.469604    7.040577   91.408951
H   58.934216   27.291990   39.959435
H   43.065983   57.171356   20.302452
H   13.440458   75.064133   57.592079
H   40.466358   58.793396   34.418865
H   29.779549    3.692029   11.759822
H   35.676659   14.562488   54.308292
H    1.497204    5.860451   76.662064
H   98.434837    6.493047   59.354652
H   53.668121   77.774879   50.149033
H   90.614960    6.818816   24.453880
H   40.379852   15.408536   83.172142
H   59.885120   83.546036   19.768238
H   73.756966   68.893021    8.306973
H    4.754115   74.379799   98.443329
H   78.671371   76.321564   54.902561
H   84.127411   54.160175   86.357841
H   11.625038   26.893913   21.290632
H   78.577316   67.688568   73.350357
H   42.142372   80.357155   69.482483
H   73.087318   93.946960   62.349529
H   58.910812   67.228447   88.374481
H   20.581932   63.755386   86.048347
H   50.874767   40.980072   21.099407
H   93.350082    4.507446   99.085510
H   90.553886   47.906933   26.214201
H   68.039177   37.685665   82.316055
H   75.635536   14.163242   69.057617
H   42.953701   76.711815    3.253317
H   30.032986   35.901527   64.796791
H   65.729027   34.884396   88.461388
H   88.409653   63.431984   74.379936
H   35.014763   94.913254   59.154942
H   17.346018   85.612625   56.264690
H   19.146713   13.212390   34.114014
H   86.606529   55.029076   83.990654
H   43.429436   52.065231   32.772644
H    5.281001   42.080101   82.329742
H   90.856133   42.092308   26.049871
H   58.057976   97.420166   29.800400
H   87.338486   40.948021   76.305061
H    5.443404   48.267757   50.998535
H   83.645256   15.990005   67.435471
H   47.690655   72.608841   54.402306
H   92.116211   17.870220    9.595836
H   60.389454   98.056343   54.565155
H   46.908607   81.472885   61.864414
H   17.910019   45.213531   39.773209
H   59.045372   31.748674   72.340027
H   26.031939    0.360732   51.524544
H    6.499618   64.197136   13.660156
H   33.261272   15.837978   86.602806
