100
TIME:    9.093, STEP:  9093
H    2.399972   88.150307   90.821121
H   49.349411   97.599335   51.448483
H   36.071209   28.090332   16.602428
H   83.002838   58.019096   41.744530
H   13.718092    1.601290   19.157158
H   87.011353   91.356972   79.256561
H   76.405037   75.341530    1.537611
H    5.194427   75.261429   73.305290
H   30.104576   12.037234   27.714857
H   26.397295   46.947010   63.748451
H   54.446320   32.117477   63.864662
H    8.785286   79.475792   45.679039
H   63.919220   11.601500   21.470451
H    4.850944   77.048714   49.222141
H   91.049568   57.801247   13.619110
H   35.914108   16.422081   78.242249
H   92.901955   83.401924    1.160014
H   95.513412   52.373512   84.317947
H   86.893021   59.817799   42.415554
H   47.532940   12.713976   35.426292
H   24.685204   50.981026   10.444902
H   34.135113   56.155075   44.925323
H   64.337547   20.674757   72.188843
H   74.187698   45.606903   31.748560
H    4.367265   65.041168    3.692091
H    4.731833   58.041855   35.190029
H   77.979927   64.493912   80.386703
H   65.299713   80.870209   67.340935
H    8.889373   74.080162   27.340458
H   49.658638   65.787674    6.256350
H   73.923729   37.442722   89.969879
H   39.894794    1.284040   57.479515
H   10.855021    3.195677   16.966208
H   62.303070   40.403442   88.678368
H   54.656120   71.202309   78.278732
H   63.076389   97.634720   90.839760
H   51.935532   71.529549   24.958029
H   88.161598   92.545891   64.107567
H   61.255627   83.296898   63.133118
H    6.734846   60.927994   53.453644
H   13.809488   68.183060   56.571621
H   33.905472   77.261368   44.174252
H   89.541534   18.034592   58.268635
H   98.727089   65.275124   69.798653
H   67.904526   73.139015   34.224598
H   60.751244   36.345867   20.102640
H   12.782344   19.346731   12.753027
H   56.742611   89.024948   31.200459
H   30.827599   79.367714   81.751129
H   16.646032   69.137291   47.750690
H   42.877224   91.772682   49.283188
H   47.049160   19.975742   77.137123
H   97.480186   74.733032   74.766281
H   66.114716   58.847595   33.064339
H   16.796673   55.472603   77.681137
H    4.921080    2.968770   83.079605
H   72.707703   27.172020   20.807547
H   48.972107   18.165541   79.339867
H    7.424214   22.980589   13.415468
H   58.973354   26.706272    4.984032
H   33.294659   55.703266    5.435166
H   76.189568   43.305710   83.925941
H   91.384354   86.792747    9.936157
H   67.441101   91.296432   80.265320
H   93.239441   34.600948   42.360462
H   42.751442   90.233727   83.833488
H   58.020187   62.728153    6.071609
H   52.250092   37.576363    0.900589
H   10.094877   96.421356   89.935333
H   14.699096    5.363352   82.557510
H   33.282360   76.711876   53.078468
H   24.481050   49.677147   22.559395
H   14.111334   68.532066   28.604877
H   30.036991   73.923073   62.878365
H    0.490762   41.704189   90.739105
H   40.622589   90.348869   84.085556
H   92.620926   38.778416   52.010094
H   59.178493   56.157936   16.621620
H   97.556938   26.809711   19.134600
H   53.595879   13.680279   37.551079
H   88.826042   23.353617   23.459633
H   23.627785    3.443389   26.283903
H   93.026070   59.185337   95.913826
H   75.732246   90.266701   32.912228
H    9.577728   80.098190   66.289291
H   42.016987   43.055290   73.228683
H   74.455757   42.216988   57.132530
H    2.269320   77.444313    1.297732
H   44.391117   87.888924   53.821785
H   62.396481   35.165932   49.268448
H   96.145683   64.424194   25.489647
H   51.088818   79.360092    6.787057
H   68.332352    0.348676   22.180231
H   26.068735   64.834702   39.924557
H   99.376678   35.234257   25.032873
H   44.966125   36.658691   97.783432
H   40.842461   89.507515   14.241289
H   20.725718   36.382175   96.336571
H   75.543541   76.067970   83.403450
H    4.013579   45.292324   21.782177
