100
TIME:    0.712, STEP:   712
H   69.172768   56.727272   98.494156
H   81.464638   43.348988   22.912901
H   91.997589   25.127880   14.979820
H   81.596115    3.314840    1.135355
H   88.793732   29.827461   46.399559
H   16.975533    0.438728   49.257710
H   15.654993    9.414499   46.132099
H   63.924500   50.198345   42.820938
H   36.125679   17.837631   55.270187
H   55.382729   26.608055   35.571571
H   34.026520   94.891556   71.165306
H   28.665203   59.379555   42.247704
H   97.972626   18.630600   54.361328
H   19.827595    2.882008   11.422947
H   89.161964    6.425754   16.546770
H   72.896057   49.461018   73.937973
H   66.822807   29.082687   38.180672
H   16.359177   60.076111   74.862595
H   56.351273    8.221164    0.874947
H   73.376198   90.604004   64.762108
H   22.025452   85.335480   37.918808
H   30.619129   45.039696   58.630993
H   76.237801   88.831566   11.978388
H   52.889023   45.221073   54.196335
H    4.119334   29.707554   41.815964
H   43.394276    6.394832   22.437742
H    0.681796   12.879514   14.094992
H   72.463799   89.672943   90.308487
H   26.652969   13.690360   23.515366
H   28.294050   73.217819   39.990170
H   44.109806   85.891426   53.070061
H   10.713240   32.840172   33.350655
H   20.509781   16.388975   61.939537
H    8.185645    8.472142   41.755272
H   63.073952    5.098372   68.083130
H   34.461090   40.416821   18.194441
H   48.088749   78.460793   64.568123
H   34.562210   45.922573   72.684456
H   18.710987   65.308891   73.885544
H   96.131233   45.528439   94.052605
H   86.584366   80.611122   59.117359
H   67.630669   43.813438   36.250996
H   17.373709   67.769592   52.900932
H   33.892807   24.703588   50.348152
H   94.894951    3.800282   17.035250
H   68.858055   76.588921   86.110405
H   43.598133   64.150925   33.707222
H   56.277439    2.714099   12.632415
H   85.842766   73.480759   16.071638
H   40.822704   41.586491   33.866463
H   43.490299    0.904143   60.924091
H   39.734154   97.670349   27.320335
H   23.648775   26.137146   61.519547
H   60.201565   95.585976   63.235065
H   84.077530   20.922194    6.447878
H   94.457108   11.783667   68.388641
H   41.388924   69.002480   23.704689
H   73.041687    9.647545   95.215164
H   46.430237   68.852234   56.823704
H   12.034751   82.514587   43.358604
H    4.613810   45.459084   58.881516
H   73.640869   21.318161   63.141121
H   22.527107   58.600594   84.712013
H   91.930916   45.667587    7.808111
H   60.584541    3.977345   61.869308
H   57.606026    6.877452   88.284859
H   30.443979   72.976715    1.436971
H   31.183205   58.257309    0.240318
H   92.387535   98.626556   15.576288
H   44.809288   83.955223    0.233535
H   99.422127   46.958530   53.608097
H   15.259697   27.895760    8.750479
H   60.568161   83.087898   43.492359
H   14.519401    4.322291   60.892326
H   96.500900   29.656790   55.372486
H   42.491802   53.206017   48.020565
H   31.599613   64.834099    3.632727
H   65.431381    4.164346   53.762394
H   95.679527   51.416843   25.627510
H   64.607712   70.178596   59.581726
H   24.815151   36.647625   22.543049
H   94.744789   48.877457   27.241184
H   62.845379   19.141123   97.714447
H   99.148041   73.088356   98.396767
H   17.660879    4.346990   78.732094
H   34.905346   35.207134   91.226585
H   14.707602   51.584724   57.494015
H   67.416962   48.289467   88.339241
H   70.458687   54.528923   22.375145
H    3.385829   79.987839   49.666027
H   53.160526   11.878153   48.497875
H   30.967745   49.055046   47.089226
H   30.966606   48.963898   73.997002
H   16.044809   56.421860   74.824303
H   44.282444   85.952881   32.446526
H   52.729874   67.614983   30.673378
H    6.087456    8.540605   96.241028
H    9.479377   22.299927   44.643890
H   74.794060   39.919445   85.410713
H   83.459061   60.416714   29.110464
