100
TIME:    5.922, STEP:  5922
H   16.841837   78.944633   93.724258
H   36.923164   25.768034   51.507313
H   81.556183   99.956940   53.830158
H   82.470596   88.663239   15.557502
H   42.128235   47.431839    5.136179
H   36.187008   94.792351   65.222740
H   42.597912   61.220760   53.561192
H   54.428772    0.930953   64.456535
H    8.053871   16.917374   27.317728
H   13.010141    1.414629   39.587986
H   49.405014    4.527185   69.311699
H   29.814690   20.529636   71.394707
H   66.171799    3.474861   36.581963
H   61.858742   86.822609    7.906125
H   52.531654   41.050308   66.108978
H   63.413116   93.769142   41.463593
H   47.895149   73.664223   12.491369
H   27.706060    6.674232   94.238808
H   37.504284   26.788263   75.355194
H   32.967949   80.051796   19.529871
H   12.856834   66.664368   96.511040
H   30.128250   51.945526   14.965240
H    6.675559   46.458977   62.915085
H   68.819633    7.672579   67.255173
H   17.779747   16.515160   80.275185
H   19.550505   51.591248   33.539551
H   51.418747   96.305740   17.467512
H   32.860889   32.858635   62.525337
H   39.939354   86.382355   77.236298
H   28.068405   44.270378   54.170425
H   49.124290   53.092167   40.849144
H   39.675846   88.893860   51.034843
H   87.494865   35.200142   31.297483
H   28.320782   31.006676   22.266439
H   33.567307   11.261570   85.336792
H   87.427185   49.265388    0.807596
H   47.795547   87.658325   75.095802
H   19.226196   50.579769   40.340244
H   95.101746   52.385979   70.426552
H    5.407595   57.786228    3.964636
H   30.524391   59.378876   81.865456
H    1.139978   64.826263   82.287590
H   62.250492   99.012421   29.226692
H    1.205002   12.043478   59.756882
H   42.965939   98.241501   62.871929
H    1.682965   75.869919    7.219969
H   88.000290   46.896866   82.310905
H   56.555683   56.364655   34.997700
H   38.135300   41.989395    8.242183
H   50.079998   20.867979   69.470627
H   43.094959   97.912231   15.854543
H   92.931190   14.221767   85.293556
H   31.712254   56.346497   58.929714
H   39.551048   10.577958   93.138634
H   69.276451   77.581161   50.718433
H    0.971600    6.304354   91.027939
H   71.679924   18.670219   19.219063
H   85.091461   17.627783   61.018417
H   57.331337   88.987724   56.849541
H   68.226700   82.972794   95.174828
H   33.265430    3.172352   52.669376
H   88.734566   72.820938   27.402122
H   76.105766    3.176039   27.381134
H   49.693344   74.022766   66.360474
H   67.379028   87.863937   47.059345
H   37.548027   47.872856   96.338188
H   12.435196   53.099728   52.976700
H   71.292671   56.222996   49.308445
H   52.055035   24.269173   88.814880
H   50.362762   46.002083   89.263092
H   33.983299   92.467819   91.109566
H   85.671036   54.985352   90.202957
H   20.865955   25.380142    9.906258
H   99.845665   74.614830   51.288109
H   47.693859   37.083599   50.326065
H   65.661201   87.117607   97.454529
H    4.633764   13.266081   95.781563
H   10.206660   63.496758   41.490181
H   45.493534   36.123943   83.754326
H    9.104788   86.419960   10.735541
H   26.756479   90.547470   33.932560
H   85.674545   82.875824   91.565361
H   92.454002    6.155717   93.924484
H   57.572845   18.917408   22.534138
H   63.976952   78.461006   73.680939
H   14.994434   26.578270   53.024902
H   62.671715   72.775139    5.927302
H   51.271049   31.188864   34.175842
H   78.581161   64.444695   79.756477
H   42.754482   65.630783   35.914688
H   66.375298   93.202881   58.523602
H   16.466928   40.869980   46.362953
H   65.065094    5.207517   76.961929
H   19.606236   72.454048   26.110292
H   54.204231   19.272610   52.166965
H   83.054489   61.878204   61.569931
H   92.542137    7.532137   96.609406
H   26.846498   79.478409   59.995323
H   26.602478   62.377712   49.008194
H    7.050196   26.667118   27.255436
