100
TIME:    1.016, STEP:  1016
H   48.614174   28.848854   98.215836
H   73.008339   59.832508   42.089169
H   97.220734   46.998852   11.410362
H   81.647141   90.790123   84.473137
H   86.070831   54.194405   38.156639
H   12.261482    0.107878   79.363823
H   99.722725   29.942755   69.905296
H   40.030701   76.498398   14.907753
H   28.652779   88.609055   36.133347
H   47.074867   30.971886   47.476723
H    5.749176    7.123527   41.883125
H   17.061565   74.617592   20.608912
H   78.634003    0.237791   24.147036
H    4.775537    1.944710   34.558323
H   92.858986   79.271332    1.933255
H   60.673157   22.869831   48.703598
H   42.381645   49.186691   65.859627
H   22.855637   45.292664   64.323532
H   61.085037   20.975191   16.890062
H   65.147194   84.230469   85.501610
H    3.985721   55.072098   29.668602
H   59.768543   45.440941   32.744884
H   72.178963   86.359154    3.280298
H   24.644150   48.867069   31.617599
H   93.246574    5.598057   44.058762
H   42.000355   97.336594   93.943558
H   74.468628    0.242176   20.127584
H   46.813499    3.862728    0.355883
H   33.263077   41.271183    9.145920
H   39.950665   65.693893   64.157646
H   56.068302   13.153372   29.014053
H   29.907904   24.441856    5.207861
H   41.923588   94.147301   89.326256
H   21.030479   80.612434   28.948175
H   55.517555   82.118263   86.596069
H   60.892242   64.296707   17.148420
H   77.246178   67.327980   88.522224
H   21.998367   40.358486   94.138313
H    5.043898   58.819389   44.748512
H   67.496712   17.068476   17.970472
H   65.807755   91.043495   66.281052
H   40.308891   57.458092   50.533466
H   19.992239   69.592590   74.859230
H   14.481012   29.798010   80.072762
H   68.524101   91.805191   43.050575
H   64.975487   82.303764   87.302544
H   46.808094   80.548630   36.304878
H   56.293674    5.844102   31.442228
H   94.730461   48.303497    3.944414
H   47.198559   46.213566   12.605110
H   43.467106   71.555229   64.129410
H   54.508324   69.462585    7.362459
H   29.955050   27.899841   43.862442
H   53.162380   90.627235   76.650101
H   59.877182   47.573200    9.027559
H   94.837479   11.464178   58.039764
H   60.660286   60.230751   52.617531
H   50.404968   80.938866   87.385086
H   70.405830   81.696716   33.484226
H   91.973633    5.880156   34.712120
H   23.790895   31.322731   35.180222
H   62.851318   18.488571   49.385139
H   43.147789   37.870369   63.856544
H   12.805738   47.321274   99.553719
H   72.650383   79.698296   90.179298
H   38.930733   91.764778    6.259513
H    6.052683   83.487946   16.114784
H   10.183776   75.643051   14.773276
H    7.538416   76.783051   96.509895
H   50.967125   99.244286   99.593719
H   89.769051   26.272696   49.962101
H   90.193375   17.806648   31.007986
H   40.747116   68.049324   35.697071
H    7.828696   85.085388   42.824699
H   11.157929   30.089346   78.417412
H   49.679424   72.689720   27.566090
H   59.202015   38.486443    9.011837
H   79.713852   84.287361   70.551163
H   10.251070   50.526218   29.017220
H   49.699020   53.621719   33.391785
H   30.764248   39.792645   40.712124
H   17.554047   50.862808    1.819779
H   82.081810   24.214670   26.668736
H   20.061056   99.102028   70.629677
H    2.858143   85.332642   49.262611
H   27.907909   46.374737   12.337492
H   35.011070   29.481453   71.989868
H   72.310760   23.950741   85.180305
H   76.767281   37.602409   19.887657
H   76.509232   67.477341   60.534435
H   65.601448   28.293253   54.917797
H   53.460667   71.919060   52.880608
H   50.472160   58.071930   97.515068
H   45.428474   74.861534   95.322594
H   39.026829   58.723427   39.432365
H   77.839005   55.610100   14.971436
H   81.957230   25.986403   78.757874
H   10.595557   24.888306   39.780243
H   60.312126   41.229870   59.944775
H    2.338473   52.607510   99.830269
