100
TIME:    8.066, STEP:  8066
H   71.851555   82.330589   91.761368
H   77.713516   41.949306   86.692459
H   18.418077   54.204086   28.657173
H   82.830460    0.330227   98.037056
H   22.920755   19.282719   47.002319
H    2.933976   92.469597   77.549507
H   30.231518    5.991794   21.224873
H   85.914597   86.413475   67.601341
H   55.350197   10.779794   92.360947
H   54.448769   32.200809   23.536415
H   49.975357   90.795761   62.790627
H   47.985733   27.997295   18.782303
H   29.407784   73.761002   23.530394
H   55.700951   80.214211   71.067070
H   78.575630   49.537949   63.005562
H   77.206604    6.247101   63.492462
H   75.487251   15.474689    7.668157
H   73.552505    2.347562   19.919056
H   70.893158   16.730999   88.310394
H   75.202866   34.523327   65.503395
H   85.628853   53.222195   38.318554
H   35.675617   54.791718   32.383850
H   78.049477   29.023363    1.571658
H   69.611023   33.321014    8.022054
H   41.097237   46.486671   96.109169
H    9.575527   88.317795   31.835602
H   66.539749    7.181970   60.013165
H   51.955490   32.933308   33.390968
H   86.558006   80.902756   75.888145
H   10.279852   91.205673   24.612202
H   33.502888   45.349251   71.222832
H   75.049492   29.656765   52.554039
H   38.515079   78.335609   24.445936
H   18.909508   34.521858   31.942633
H   80.215157   48.960625   15.793308
H   73.801376   17.192785   94.067940
H   53.432812    9.140318   44.034512
H   30.610199   11.338800   91.637032
H    4.602189    5.673792   62.656975
H    3.466773   57.072128   72.651489
H   83.997879   32.946388   32.375942
H   20.455528   73.233978   91.744164
H   80.703217   11.873371   84.088905
H   64.301178   48.030014   69.385284
H   56.989273   13.650539   46.339630
H   74.006798   16.760445   15.930296
H    4.753185   63.494698    2.890401
H   56.679928   78.447174   67.655922
H    0.810002   64.422859   22.717434
H   95.087646   53.503117   19.557358
H   42.947742   90.922951   38.454681
H   97.135696   15.273550   44.554291
H   76.183601   68.778137   34.411354
H   89.902954   75.602066   87.747208
H   98.567513   65.471558   68.952515
H    3.641952    4.049074   18.041122
H    7.602164   56.805458   23.131294
H   25.444597   15.153074    5.792636
H   26.422539   79.585960   92.259247
H   26.746246   47.768391   34.194359
H   68.510056    3.466007   85.507179
H   12.639839   52.864883   30.392998
H   21.660892   56.873810   80.360626
H   96.917168   85.701965    8.145621
H   52.477539   16.625967   46.720657
H    5.841652   41.288506   23.109226
H   40.418579   27.225483   56.488873
H   23.192131   78.840263   51.804047
H   58.912064   70.215019   54.348373
H   93.841011   53.777325   84.735748
H   65.900627   46.591660   65.395699
H    9.052308   83.776756   47.280231
H   81.072617   19.335085   54.939617
H   52.642086   38.922581   23.898958
H   51.018158   40.191959   12.871101
H   16.340723   24.527355   53.189102
H   99.347374   27.667641   33.792816
H   10.934503   23.307217   59.896137
H   48.306183   29.826336    7.672850
H    3.961555   69.626152   26.027992
H   68.720436   12.728829   62.076721
H   46.562180   96.779770   12.202957
H   28.066607   42.010166   98.107468
H    5.077756    2.383968   26.712917
H   59.583176   44.343426   65.844780
H   65.655807    5.330665    1.910609
H    5.864732   16.888573    8.161354
H   85.752495   59.625740   11.946106
H   23.077221   45.069908   62.221321
H   53.196636   77.419693   12.557764
H   54.116657    8.972846    3.801102
H   75.101219    2.120059   87.216728
H    2.499745   69.539848   42.760742
H   26.813875    2.527774   70.676781
H   17.135033   27.226402    1.435393
H   60.140121   77.214661   50.829597
H   22.361143   30.569820   73.305565
H   22.708071   85.565117   16.956087
H   24.467216   71.633141   69.426155
H   40.221134   71.645004   20.716480
