100
TIME:    7.155, STEP:  7155
H   33.458328   65.873055   92.595413
H    2.873534   92.582237   29.250492
H    2.758584   88.663689   39.352718
H   82.677551   37.865204   47.973476
H   31.083975   46.262142   71.703964
H   17.062489   93.456551   87.329880
H   77.975830   44.478092   49.983471
H   57.517403    7.600973   51.246124
H   77.744316   98.369202   49.705746
H   79.331123   19.120195   87.864937
H   34.714355   54.139469   50.543251
H   82.754730   82.333908   83.628624
H   87.499046   28.902157   14.062637
H    0.808872   83.022163    1.737765
H   67.510628   30.912956    6.819636
H   13.836273   85.926453   39.113770
H   48.744606   55.217365   24.736231
H   54.074001   46.676651   51.495956
H   56.704060   78.514954   40.314510
H   99.751602   53.866230    3.478283
H   39.688873   43.914871   63.041050
H   48.337158   53.582352    9.963898
H   90.212639   36.431068   27.638090
H   54.255890   22.422823   75.681763
H   73.680611   18.732399   89.381203
H   13.870861   15.172077   17.565191
H   45.095516   45.052689   41.935230
H   28.823914   90.410927    3.277559
H   66.749428   98.249886   18.951311
H   75.347809   13.753756   52.190361
H   97.648705   63.657303   43.298180
H   17.528164   54.824085   36.889854
H   74.346321   44.988167   42.375862
H   80.417320   18.009537   70.322617
H    2.887420   17.936104   60.368958
H   94.609901   45.839340   96.931496
H   66.055710   42.504517   72.251373
H   68.261314   28.012272   27.349991
H   43.058193   25.520597   50.939484
H   89.272392   42.356312    0.974579
H   46.257690    1.690388   10.913588
H   97.229408   69.661484   45.235035
H   72.863190    6.408636   18.287548
H   22.473133   32.738976   80.313225
H   36.012695   49.591061   68.382759
H   85.766838   99.387527   12.229219
H   97.633102   13.951135   94.144966
H   56.624325   69.064163   11.288502
H   74.176338   39.872562   59.060074
H   75.960205   39.637112   83.254799
H   43.010296   78.874298   28.850399
H   52.861782   99.807373    4.355517
H   57.290005   63.495850   87.317635
H   11.000671   90.461975   47.546219
H   71.103104   85.634987   61.207287
H    2.507303    5.007358   49.053711
H   49.846935   83.091789   36.487572
H   93.279953    1.185581   29.259832
H   54.575806   41.090626   62.195549
H   86.862709   77.745621   60.105370
H   11.043205   45.830391   56.534897
H   44.973000   61.344345   71.614273
H   59.814648   19.038620   42.830627
H   34.360470   80.739395   32.881466
H   16.316227   89.386322   61.883030
H   61.804474   86.577171   69.243286
H   13.509329   95.730042   12.505340
H   86.120857   26.739878    8.252975
H   13.505337   35.673660   11.482732
H   75.342735    8.016810   86.666748
H   94.828102    8.575597   76.321693
H   84.065697   14.031465   80.505791
H   40.472229   64.395309   78.295715
H   72.696938   96.579895   78.027985
H    7.135437   38.850536   43.798542
H   94.804222   66.142601   14.489070
H   16.609421    6.516454   17.636274
H   68.135239   82.872765    9.582568
H    4.622667   32.502232   97.507423
H   48.636795   19.252777    4.511591
H   50.885765    3.304116    7.627189
H   78.201668   90.871948   88.416985
H   70.445992   26.774939   11.348719
H   42.401920   24.428127    9.919027
H    3.940489    1.333992   54.155342
H   86.618149   71.870987   38.648224
H   45.021061   83.125679   64.721367
H   71.101097   32.523304   21.391670
H    4.168893   95.793770   69.672127
H   33.740414   14.898899   79.990097
H   16.834827   59.779640   84.562302
H    7.696444   33.603302   69.854683
H   44.102711   42.205418   72.311714
H   38.769608   47.258385    9.249591
H   32.887871    8.827652   80.500977
H   84.895233   13.189029   97.883659
H   94.672417   78.290573   25.698692
H   24.466516   40.488590   35.245392
H   67.865379   67.699226   45.731556
H   83.635628   95.026077    8.475953
