100
TIME:    6.646, STEP:  6646
H   67.880447   12.550718   93.061417
H   16.929520   65.002602   97.156532
H   94.006561   52.043587   45.329212
H   82.592117   58.835358   75.873779
H   35.643433    5.463575   85.505432
H   24.957363   94.007988   36.921757
H    4.654103   10.106623   10.179010
H   97.523796   63.564251   97.979561
H   90.256508   47.307632   81.745216
H   93.233559   11.811152   67.935524
H   82.060303   33.658619   99.573509
H    2.179733   56.820225   19.859409
H   19.971725   59.693386   64.641533
H   26.010509   84.591042   63.004848
H   61.328316   76.379356   31.296490
H   34.303314   30.445656   81.364746
H   89.675240   21.552502   78.399940
H   43.188938   71.444733   69.139198
H   48.778118   57.162987   13.499896
H   13.463829   64.673866   68.823204
H   69.893661   94.586517   76.857780
H   99.538834   52.906647   53.309982
H   97.008522   40.570732   42.201279
H    1.548346   16.333712   13.483351
H   91.885811   59.099945   85.622108
H   16.250105   30.186981   65.456154
H   88.986946   66.212723   31.834608
H   71.770859   66.652519   86.454269
H   55.681847   52.068951   43.011566
H   55.830036   26.351555   11.726704
H   77.618324   18.015556   83.568642
H   85.389832   68.887085   84.010567
H   38.492359   82.229607   96.521118
H   58.911263   64.656479   91.766541
H   15.555721   56.474586   29.399149
H   50.362881    5.971702   98.531441
H   17.237221   61.144653   32.144016
H   89.301369   37.328457   91.431740
H   64.544739   36.610344    0.265935
H   37.214634   90.006927   60.929005
H   81.044846   84.223366   98.922585
H   40.125366   67.665436   19.250507
H   68.482758    3.355292   81.521385
H   54.972988   24.195578   30.546614
H   80.164055   69.673019   24.826651
H   92.337486   89.679123   10.161329
H   93.656540   86.269669   89.259697
H   56.594349   63.821625   79.794754
H   59.296524   82.028114   79.363235
H   65.273193   31.889776   18.843287
H   43.045246   28.015406   23.485535
H   28.120785   47.040550   37.767799
H   46.731144   60.544495   16.878920
H   22.786674   98.764603   25.085453
H   11.630333   41.028694   56.877338
H    1.873344    5.542776   66.381271
H   17.580080   97.778664   88.077278
H   31.180372   49.255013   42.370468
H   14.433457   19.580685    1.269959
H   20.451889   38.622112   74.582542
H   78.935234   69.500381   96.222122
H   63.038399   66.082047   94.642609
H   25.256990   53.772133   77.734283
H   99.408066   77.966675   46.702351
H   96.113220   30.038887   14.481997
H   93.073303   11.880705   39.147232
H   54.347641   78.130646   87.930557
H   21.281258   97.628517   83.919830
H   88.137550   72.247162   43.407711
H   65.028526   82.416924   87.738556
H   10.991512   43.207626   82.426338
H   25.974325   30.957336   43.211067
H   73.659439   89.568512   91.343811
H   83.904320   28.794418    8.271200
H   82.600945   38.116528    5.209565
H   82.773567   33.518734   48.737389
H   70.381439   50.573177    8.609400
H   44.221493   16.154207   81.473701
H   80.212456   33.997326   91.829948
H   73.599045   46.980873   48.362297
H   40.924721   98.037582   77.205078
H   40.007362   87.571091   31.000439
H   38.249817   18.262609   62.875809
H    7.384282   80.871605   56.406879
H   28.724558   33.174103    3.497283
H   98.330368   53.174232    3.301522
H   11.026110   20.134453   40.450356
H   62.914970   73.255005   26.669159
H   93.605576   24.133406   73.835091
H   78.743423   35.841869   61.793137
H   96.004326   32.297089   73.813156
H   70.035599   95.322433   60.155586
H   11.474839   26.932156   32.949959
H   89.577217   16.377893   74.928589
H   41.687569   54.422203   68.804291
H   42.853958   33.287628   24.174606
H   35.073753   49.079926   54.971893
H   25.449007   15.303704   45.462517
H   92.113091   65.501244   88.364769
H   52.018764    8.088215   57.511013
