100
TIME:    2.710, STEP:  2710
H   34.055573   73.500542   96.664932
H   25.886726   51.677574   48.945942
H   26.337240   68.872330   91.526405
H   81.931473   20.998453   91.618591
H   70.897827   89.975967   92.226120
H   85.996101   98.272148   47.126560
H   10.939886   44.330383    2.378402
H    6.885643   23.051661   59.371693
H   87.010963   25.738052   29.501789
H    0.784761   55.294945   13.809436
H   48.177429   75.285324   78.708130
H   52.409058   59.528946    0.028828
H   70.878197   97.748444   55.776382
H   20.897697   96.722878   63.473530
H   13.463890   27.958883   20.504614
H   92.560608   74.702545    8.087538
H    6.185034   61.214737   20.090342
H   59.056305   62.913338    5.593086
H   87.474815   92.040237    6.136916
H   19.507462   48.263821    0.842070
H    3.461448   86.428192   83.688507
H   22.190689   47.681549   88.496765
H   49.561623   72.581963   54.814346
H   67.253143   69.183899    5.804830
H   32.657951   71.244812   56.556458
H   34.232914   46.859081   35.163429
H   28.392128   29.825056   53.743412
H    3.880495   82.933357   56.351742
H   70.097031   94.964668   29.068438
H    4.907372   23.767807   98.826286
H   22.710066   65.065491   94.972374
H   36.868141   77.636345   48.385780
H   61.247471   70.205849   41.935158
H   92.604668   25.367325   57.582809
H   13.407876   54.064941   89.748985
H    8.178090   97.368950   11.324151
H   39.723282    5.289064   22.002562
H   51.980637    9.353344   13.679308
H   30.682755   22.370096   81.693283
H    7.942083   58.482895   51.251972
H   50.041531   49.168934    6.192274
H   88.061790   33.484497   30.118731
H   34.583652   79.751007   97.220116
H    6.307761   58.191963   45.703171
H   21.583529   24.968807   88.012672
H   43.124859   14.605885   94.173256
H   62.905476   72.216583   51.472893
H   56.384144   23.285303   36.257347
H   44.244644    8.007992   36.370918
H   82.720360   71.993324   94.124298
H   43.337864    8.010275   81.990646
H   36.832935   12.271065   96.154564
H   65.095528   37.722229   45.477356
H   13.937450   62.994835   51.400909
H   25.017014   96.077881   23.400831
H   96.957047    9.683870    0.372011
H   68.052711   11.351140   13.731102
H   24.264252   20.961575   43.753006
H    4.009628   53.273113    3.434641
H   80.186386   36.087833   86.531746
H   30.650011   52.543209    3.103662
H    2.731113    2.718332   72.736847
H   58.051373   22.351702   47.641769
H   29.129820   56.536224   53.566502
H   39.886776   44.401081   47.938560
H   34.865517    7.550737    6.421494
H   70.140083   42.053974   97.900345
H   93.167397   72.524841   95.756271
H   91.967583   55.063011   90.265694
H   85.288879   84.448311   96.026642
H   35.978554   11.011025   29.641296
H   50.514740   61.585480   55.036087
H   30.295065   84.258720   92.261223
H   70.553215   77.885971   42.145195
H   92.831932   32.501049    6.833987
H   89.723198   81.258781   13.581364
H   13.005037   91.662003   38.977543
H   59.301052   73.521324   64.104874
H   91.467621   45.558605   47.916122
H   66.621834   61.363155   87.452347
H   63.914806   57.317852   41.958698
H   44.658691   61.925919   60.169044
H   89.261917   52.491028   88.014069
H   36.594181   44.059784   15.901215
H   20.374882   79.372742   85.048393
H   88.919617    8.596401   29.973965
H   48.149498    6.313858   52.766602
H   99.580811   88.325378   67.561592
H   11.922573   43.283318    6.028554
H   26.737812   97.776932   21.094265
H   34.927002   19.764412   90.691971
H   78.803635   99.314751   85.160789
H   59.162754    8.835020   28.568596
H    9.159021   77.615013    9.540441
H    9.735691    6.983615   78.360039
H   17.756516   88.716805   27.474121
H   47.495071   23.201687   81.334862
H   16.814901   39.311707   12.673996
H   79.615379   48.532040   18.046684
H    7.541458    9.094637   36.674225
