100
TIME:    0.828, STEP:   828
H   61.328041   46.089455   98.387955
H   78.237892   49.638752   30.230162
H   93.990631   33.473156   13.617790
H   81.615585   98.535484   94.777336
H   87.754730   39.125374   43.254234
H   15.176750    0.312483   60.746021
H    9.575640   17.247534   55.203449
H   54.807129   60.233471   32.169846
H   33.274178    6.684553   47.967972
H   52.212624   28.273201   40.114326
H   23.236481   99.559097   59.991493
H   24.237499   65.194069   33.990562
H   90.593414   11.612333   42.832306
H   14.083956    2.524353   20.250919
H   90.572670   96.064423   10.970566
H   68.232056   39.314381   64.309067
H   57.496574   36.753952   48.742378
H   18.838089   54.435059   70.841110
H   58.157578   13.087832    6.986022
H   70.236183   88.171997   72.675865
H   15.141846   73.787872   34.770828
H   41.741932   45.192802   48.753399
H   74.689034   87.888145    8.659380
H   42.111374   46.612309   45.580765
H   99.970695   20.507877   42.671768
H   42.862385    2.938554   11.565045
H   90.679382    8.057317   16.396902
H   62.675713   95.087433   94.142349
H   29.175247   24.214502   18.032288
H   32.741741   70.346848   49.211971
H   48.672916   96.293831   43.890739
H   18.037420   29.635551   22.611946
H   28.680634    7.902173   72.389732
H   13.087050   97.841560   36.868248
H   60.190590   96.329567   75.147278
H   44.546661   49.528881   17.795301
H   59.214207   74.212746   73.708504
H   29.768112   43.799435   80.870796
H   13.495960   62.832634   62.767952
H   85.204903   34.668484    3.178984
H   78.656448   84.591896   61.851154
H   57.205254   49.019951   41.700886
H   18.372885   68.465210   61.279320
H   26.485605   26.647512   61.690437
H   84.832390   99.223526   26.961962
H   67.376549   78.769585   86.565300
H   44.822987   70.407944   34.698433
H   56.283634    3.908475   19.809843
H   89.234123   63.873108   11.444146
H   43.255596   43.352085   25.753578
H   43.481449   89.705193   62.147175
H   45.371666   86.906860   19.704826
H   26.055117   26.809753   54.781967
H   57.515560   93.693825   68.353958
H   74.843338   31.091398    7.432230
H   94.602249   11.661757   64.439728
H   48.742470   65.655373   34.737221
H   64.403992   98.692955   92.227371
H   55.578583   73.753418   47.917850
H    4.380133   91.430176   40.059288
H   11.931292   40.064949   49.837601
H   69.523804   20.238449   57.892128
H   30.395287   50.690376   76.754005
H   99.896004   46.298599    4.658361
H   65.189018   94.712822   72.671913
H   50.479927    1.110835   95.143684
H   21.136774   76.987579    7.037670
H   23.170326   64.891342    5.785789
H   98.168419   90.291534    8.300844
H   47.158989   89.789207   99.989594
H   95.738716   39.065128   52.216862
H    5.695175   24.045967   17.243475
H   53.004868   77.349495   40.517841
H   11.966369   96.981689   53.998100
H    2.093947   29.821844   64.165947
H   45.234447   60.640984   40.215664
H   42.132099   54.780388    5.685276
H   70.881271   96.579536   60.168980
H    1.239330   51.077000   26.920952
H   58.918869   63.861374   49.588196
H   27.085201   37.847698   29.475773
H    3.448163   49.635025   17.541035
H   70.185509   21.077082    8.762753
H    7.127971   83.014626   87.801430
H   12.012461   97.091248   67.487160
H   32.235271   39.468456   99.281944
H   22.454977   43.150581   63.025326
H   69.284332   39.002174   87.133858
H   72.865913   48.070122   21.425972
H   93.130203   75.214096   53.813183
H   57.907719   18.141809   50.947582
H   39.550571   57.779472   49.299095
H   38.409477   52.439331   82.971001
H   27.256998   63.458572   82.646019
H   42.277012   75.562866   35.112175
H   62.310989   63.034172   24.681862
H   96.879959   15.197427   89.569824
H    9.905288   23.287598   42.788025
H   69.268059   40.419476   75.693306
H   90.663040   57.436886   17.937658
