100
TIME:    6.367, STEP:  6367
H   86.748367   38.135765   93.316849
H   24.633991   49.883289   79.565773
H   89.208694   31.970879   48.605129
H   82.545288   70.329803   91.165649
H   38.142410   83.100555   93.070480
H   29.284809   94.310249    9.291260
H   19.276176   91.267540   88.360771
H   19.452652   39.428043   23.596775
H   97.114861   74.132263   99.306175
H    0.854065    7.804605   57.011539
H    8.012192   22.432379   26.448166
H   12.829102   42.835316   39.718605
H   37.775345   76.565224   92.364433
H   39.824669   85.450996   41.772053
H   57.939583    1.301009   44.713062
H   45.521042   54.847939    4.524077
H   12.110908    3.099293   53.001472
H   37.222469   85.020950   78.811562
H   44.433643   45.457809   98.801620
H   20.979919   70.599892   49.827568
H   86.449921   22.362164   84.431343
H   72.790833   52.536270   77.069427
H    0.733647   42.839821   50.183533
H   27.471527   12.996065   34.204395
H    1.864580   81.225098   83.561623
H   17.521944   38.435310   91.693291
H   13.044991   77.809341   26.298117
H   95.313187   53.629738   77.233170
H   49.615334   26.755848   56.200378
H   45.131687   33.256737   89.547165
H   66.639000   92.997017    5.642187
H   67.773529   76.596878    9.838936
H   18.839699    2.642781   71.386597
H   47.123070   90.225235    3.520406
H   22.499252   77.598824   12.423667
H   26.109858   84.119286   99.408424
H   90.477211   71.361938   10.159968
H    0.834017   42.434971   71.742180
H   76.320160   42.689629   27.302423
H   63.492214   16.125843   38.976742
H    0.112847   74.648918   92.349464
H   63.637894   66.571335    5.007030
H   66.081696    1.681559   61.368065
H   72.788300   19.512655    3.267733
H    4.366051   80.682144    0.951198
H   95.939079   84.357620    9.027849
H   91.476852   71.097000   86.581917
H   56.579449   60.948013   62.531803
H   51.141853    5.135762   90.491562
H   59.416950   27.642153   38.351196
H   43.064404   54.950882   20.544872
H   14.558460   72.929993   56.082283
H   40.943478   58.926758   33.082966
H   29.246979    3.316730   12.774688
H   33.845390   16.578125   54.503948
H    1.525850    5.836257   75.879089
H   99.893044    5.829352   61.542137
H   51.955475   75.602837   49.556625
H   92.429031    7.790734   22.688240
H   38.862160   17.176456   82.517967
H   61.335957   82.476334   17.975048
H   72.940651   68.678940    7.266253
H    6.315610   72.810341   96.866150
H   80.250656   76.446854   54.278042
H   85.040237   52.323116   88.499702
H   10.212193   25.750511   22.650572
H   76.732010   68.483826   74.460770
H   40.553612   81.672523   70.582016
H   74.233528   92.294327   60.906940
H   59.376701   68.385185   88.326050
H   19.851513   62.190491   85.772499
H   48.978397   40.216751   22.783363
H   91.850464    3.369835   98.495911
H   90.047462   46.451359   24.847681
H   69.148186   37.718479   84.059586
H   76.179161   15.637329   67.509918
H   45.042568   74.721214    3.661233
H   31.113567   34.397522   66.066887
H   66.832069   34.816837   88.717934
H   87.281693   62.179085   72.398460
H   35.464859   95.151199   60.529621
H   19.071913   85.761780   54.340595
H   20.601585   13.596990   36.304482
H   88.188972   56.997215   81.889854
H   42.309547   50.626503   30.543045
H    4.751611   42.925018   83.926926
H   92.392250   40.420021   27.146597
H   58.427879   95.579773   29.561928
H   87.815781   39.667397   76.116951
H    3.409859   47.321415   51.820641
H   84.586510   17.231937   67.921188
H   49.392422   74.338684   54.840469
H   93.590561   18.560368   11.374461
H   62.612209   99.451729   56.116013
H   46.510979   79.412796   62.392948
H   19.809723   44.305267   38.585236
H   57.219719   33.068588   71.017288
H   25.987543    1.498766   51.062866
H    5.403967   64.296455   11.733604
H   34.689823   15.247765   84.387245
