100
TIME:    4.234, STEP:  4234
H   30.993618   33.741882   95.269669
H   83.543037   34.298126   45.073395
H   52.533318   78.515129   73.643776
H   82.187271   58.209648    8.082410
H   57.247498   12.131274   50.903061
H   62.368832   96.621086   98.052879
H   31.066822   47.238293   21.557322
H   87.102242   54.895916   19.441692
H   49.548134   79.211502   33.571453
H   59.136253   77.177330   73.489990
H    6.418655   36.606556   31.909500
H   94.239372   35.919029   91.548714
H   73.886856    5.551346    4.310587
H   45.437798   92.025490   79.449631
H   32.003456   91.829712   47.248478
H   31.285210   41.408012   81.581970
H   83.633980   62.015507   58.826073
H   91.614220   88.801109   52.756008
H   11.214340   55.976570   86.425995
H   78.445732   15.902437    4.603024
H   13.025146   34.709423   42.325035
H   68.298050   49.704681   58.714066
H   29.214027   60.187370   11.209903
H   25.657051   87.461853   92.618942
H   78.152252   50.382858   67.808876
H   27.245359    1.485796   92.272499
H   96.976006   66.476761   83.978065
H   75.288666   54.068512    6.723689
H    3.234759   33.233242   57.028542
H   63.343521   86.047966   19.979343
H   82.690254    1.727045   74.398338
H   33.094433   35.530502    7.301437
H   68.595680   58.702599   79.229111
H   56.998260   85.701965   93.380180
H   75.525192   38.862267   82.549271
H   40.691730   17.054279    6.117211
H   85.894577   49.478012   42.087879
H   88.993355   81.467812   21.223537
H   66.356140   89.166740   34.005821
H   64.396965   15.810126   71.157532
H   45.887497    1.464477   42.096905
H   51.093338    1.881133    1.718768
H   47.710758   88.889984    7.300599
H    8.989779   83.727936   94.713013
H   89.387474   64.837036   18.425562
H   23.463268   43.673878    0.359481
H   74.812790   55.097374   66.109856
H   56.465534   38.978790   30.553825
H   88.794907   81.789642   75.579315
H   14.677226   95.177956   87.533058
H   43.221592   60.878181   98.059433
H   10.897326   70.856476   96.106812
H   96.698250   46.558899   56.966305
H   78.641869   38.124260   18.651020
H    3.677017   29.645815   36.358997
H   98.863907    8.080038   48.491455
H   64.667496   67.376396   58.676094
H   10.783330   77.038475    4.496367
H   24.203459   17.665577   86.436836
H   79.618073   53.228268   43.185555
H   26.784903   81.671043   84.279823
H   48.641685   88.532608    3.777842
H   61.507908   18.362450   43.132378
H   33.780373   64.827576   12.185307
H    0.376132   22.681076   89.862755
H   41.243721   31.788033   96.530930
H   47.867020   94.743591   71.479660
H   87.894310   59.684341   68.612282
H   67.925735   45.558090   94.682800
H   16.167582   61.102097   92.817535
H   87.583275    7.318203   11.357529
H   24.854778   11.006885   66.616631
H   30.927290    8.876476   53.190620
H   37.003719   81.444084   51.583885
H   66.307747   34.675335   22.364103
H   25.751520   78.933067   11.035507
H   51.375206   59.572407   65.929390
H   30.901348   73.870552   48.268738
H   64.546516   41.082134   64.926079
H   91.881744   78.361839   56.158318
H   93.726974   73.084335   33.044598
H   59.008133   71.878799   32.733521
H   85.681892   77.931335   33.167614
H   41.442383   74.471504   76.706009
H   46.169022   84.045631   37.313522
H   53.848621   64.578804   35.805130
H   49.934013   95.506622   25.437101
H   24.108484   66.309975   51.711113
H   43.551865   58.429710   93.562141
H   91.995895   35.077721   75.571320
H   97.295288    2.056165   22.876139
H   91.569550   13.919594   14.203699
H   56.861092   54.559204   46.426250
H   56.460751   70.057358   12.295908
H   83.386726   70.474419   13.380042
H   43.632645   28.534767   48.757408
H   26.527149   10.661109   93.687454
H   22.407583   52.287659   88.284645
H    7.015180   55.101406   90.394646
H    2.202045   69.979805   89.865372
