100
TIME:    1.025, STEP:  1025
H   48.005531   28.023506   98.207596
H   72.757988   60.320507   42.656887
H   97.375366   47.646358   11.304688
H   81.648651   90.419334   83.979851
H   85.990219   54.915794   37.912605
H   12.121922    0.098083   80.255089
H   99.250999   30.550505   70.609108
H   39.323318   77.277054   14.081392
H   28.431541   87.743744   35.566795
H   46.828911   31.101078   47.829178
H    4.912018    7.485655   41.016235
H   16.718037   75.068718   19.968306
H   78.061478   99.693275   23.252508
H    4.329922    1.916963   35.243252
H   92.968437   78.467407    1.500619
H   60.311295   22.082592   47.956528
H   41.658058   49.781876   66.679070
H   23.047966   44.854996   64.011520
H   61.225182   21.352777   17.364191
H   64.903572   84.041779   86.115608
H    3.451653   54.176094   29.424328
H   60.631519   45.452820   31.978519
H   72.058800   86.285957    3.022789
H   23.807953   48.975010   30.949150
H   92.924675    4.884289   44.125160
H   41.959087   97.068390   93.099945
H   73.692581   99.868057   20.306181
H   46.054138    4.282826    0.653366
H   33.458771   42.087742    8.720509
H   40.295773   65.471146   64.873131
H   56.422337   13.960489   28.301899
H   30.476171   24.193222    4.374694
H   42.557568   93.488808   90.137047
H   21.410744   79.787636   28.569044
H   55.293846   81.437935   87.144150
H   61.674744   65.003677   17.117453
H   78.109428   66.998390   89.231392
H   21.626411   40.193760   94.773460
H    4.639283   58.627266   43.885880
H   66.648979   16.225927   18.678576
H   65.192657   91.352348   66.493088
H   39.500023   57.862045   50.956303
H   20.069761   69.646561   75.509346
H   13.906324   29.948832   80.952766
H   67.743385   91.450058   43.820786
H   64.860542   82.473000   87.337837
H   46.903126   81.034088   36.381783
H   56.294155    5.936765   31.999098
H   94.993584   47.558144    3.585388
H   47.387318   46.350552   11.975662
H   43.466419   70.686348   64.224304
H   54.945717   68.627487    6.771609
H   30.141748   27.952026   43.339699
H   52.953983   90.480431   77.047256
H   59.160667   48.362225    9.103931
H   94.848740   11.454720   57.733383
H   61.230820   59.971062   53.473503
H   49.734802   80.088936   87.153275
H   71.115685   82.076981   32.793255
H   91.379684    6.571951   34.456139
H   24.358648   30.904221   34.478539
H   62.531891   18.404800   48.977890
H   43.758286   37.256645   63.239113
H   13.423754   47.370232   99.309410
H   73.007576   78.979515   91.017418
H   38.377846   91.317360    6.791646
H    5.330572   83.799133   16.549328
H    9.562070   76.157761   15.203528
H    7.986993   76.136368   95.945473
H   51.149429   99.696922   99.574768
H   89.483269   25.660311   49.854160
H   89.451248   17.507957   31.666925
H   40.160309   67.604103   35.466290
H    7.630616   84.515884   42.289803
H   11.591838   30.102152   79.099663
H   49.892216   73.266502   26.960503
H   60.019192   37.706413    9.171087
H   80.136688   83.698906   71.048157
H   10.682489   50.499851   29.117573
H   49.257645   53.131523   32.616425
H   30.940372   39.885754   41.250042
H   18.229328   50.921585    1.067166
H   82.651314   24.364874   27.525944
H   20.680204   99.872169   69.807625
H    2.419904   84.769730   48.390160
H   27.700748   46.705357   12.962494
H   35.612160   28.827080   72.419022
H   72.455643   23.230209   85.086784
H   76.954048   37.101295   19.814014
H   75.713547   67.106964   60.856197
H   65.969765   28.779226   55.107861
H   54.126575   72.595955   53.052063
H   51.049629   58.341576   98.211327
H   46.298386   75.407417   95.929451
H   38.871235   57.917236   39.639183
H   78.582367   55.254692   14.506559
H   81.242844   26.502897   78.240280
H   10.628602   24.964935   39.636253
H   59.883385   41.268665   59.190907
H    2.897407   52.376316   98.963448
