100
TIME:    5.140, STEP:  5140
H   69.725258   50.657112   94.440201
H   58.520760   83.392975    2.198511
H   68.108398   43.695801   63.012119
H   82.339340   20.882568   58.423424
H   49.132538   84.751175   26.337788
H   48.316265   95.639549   87.777641
H   83.582497    8.414257   92.407700
H   15.892433   33.277172   36.256306
H   27.276924   92.103256   76.542931
H   34.376640   90.186150    8.965147
H   22.144745   73.061661   44.638485
H   59.663521   81.332390   27.057859
H   16.072952   50.764656   14.285645
H    0.579270   89.232948   48.397049
H   43.021553   10.902099    3.696349
H   94.854919   62.165848    6.375916
H   10.778936   21.942234   41.302826
H   10.983287   44.722591   21.346827
H   25.325661   93.981476   34.157032
H   54.034554   96.661659   66.287727
H   59.261833   44.514526   17.736221
H   55.157150   50.907410   81.559814
H   17.117622   52.818932   85.288284
H   41.477962   98.317596   25.331650
H   45.747711   78.532272   74.499916
H   23.115301   74.707458    7.075951
H   18.850550   28.812759    1.950521
H   98.844093   96.357544   36.673851
H   22.935722   15.433153   14.201794
H   98.084396   63.624687   92.004219
H   18.346058   82.969101    2.718498
H   90.300056   10.500932   23.428474
H   32.411610   92.415871   60.848747
H   95.278198    2.672470   55.210838
H   53.005142   70.375473   37.717987
H   19.449011   88.015251    3.266964
H   72.791260   16.297665   13.477094
H   51.545185   64.892281   85.157051
H   28.111187   69.425407   46.207855
H   79.062462   30.993435   42.439030
H   83.969406   32.548935   63.441875
H   69.666557   42.544052   44.279102
H   55.514668   94.322998   72.740700
H   51.136379   98.917480   83.297897
H   10.799150   29.093727   95.953758
H   11.774059   60.954456    4.042487
H   81.890915    4.368015   74.805443
H   56.513920   48.310303   86.612022
H   15.278839    6.755719   39.437469
H   33.678951    8.965437   24.166069
H   43.152470   73.409561    7.610764
H   54.926582   86.785889   36.630791
H   15.490239   51.812195    4.345304
H   57.658424   23.338997   58.630211
H   31.540993    9.049602   44.066135
H   99.997513    7.126942   17.649078
H   22.105957   41.234337   44.844276
H   43.320206   91.477821   81.160263
H   95.658257   55.946808   16.882030
H   19.832378   22.865345   17.416756
H   83.935547   39.538097   13.641688
H   16.487654   80.099686   62.787575
H   23.014540   56.538864   81.005219
H   95.993813   69.762909   87.588165
H   36.337608   50.321354   74.234764
H   85.587761   86.748528   50.100243
H   75.176544   26.066280   15.221344
H   25.310966   11.499095   11.924323
H   13.078053   80.458717   37.861076
H   34.522537    6.668608   90.909760
H   58.814568   45.674713    0.488527
H   50.150116   80.938263   32.948196
H   71.853638   64.058937   29.958611
H   17.058254   24.108749   97.752769
H    9.992023   35.967922   91.044525
H   47.172523   36.998428   50.072063
H   33.633366   81.045601   81.951942
H   73.466873   14.627979   98.301643
H    7.995734   38.420925   75.031761
H   47.449921   29.017639   78.105682
H   11.453653   82.457321   87.195015
H   26.985886   77.795670   56.974022
H   42.991783   93.078308   19.450979
H    3.774176   52.000168   93.957855
H    2.053261   27.374687   49.487007
H   32.994419   97.854286   98.720261
H   10.443716   29.633057   68.638550
H   38.691422   93.774200   42.289742
H   62.353134    7.985617   86.152229
H   11.893239   97.800461    7.960967
H   34.372673   50.976055   42.009197
H   58.606846   82.056625   31.465384
H   14.937228   81.747200   16.488667
H   44.028717   25.011267   73.381477
H   67.723610   89.319450   34.196812
H   18.464554   92.759186    1.961082
H   54.613182   62.654736   41.583054
H   25.732367   60.001709   73.782784
H   63.855347   59.006817   14.507660
H   58.474857   46.732197    2.587573
