100
TIME:    4.930, STEP:  4930
H   83.926918   69.915230   94.632462
H   64.320625   72.014343   88.958008
H   64.497101   28.587490   65.476906
H   82.304092   29.535103   69.934212
H   51.013489   67.918747   32.031113
H   51.573483   95.867058   66.981438
H   94.589424   94.234207   75.985428
H   32.398018   15.110114   55.538456
H   32.439125   12.294069   89.760857
H   40.115623   87.170860    0.741337
H   41.678436   64.611801   64.865982
H   67.678459   70.806114   42.005867
H   29.473526   63.463478   35.152344
H   10.976945   89.880226   32.415375
H   40.467690   29.659647   13.791157
H    3.298649   80.533157   23.808155
H   27.665962    8.052768   22.185698
H    6.492730   54.939648   28.626299
H   22.054825   85.172729   23.094027
H   59.691826    1.121899   51.989937
H   71.723534   65.421173   23.435951
H   35.024246   50.628632   99.443268
H   19.921425   54.526848   91.296432
H   60.990826   95.805389   40.928459
H   53.258698   95.185257   72.949013
H   24.072599   80.914276   26.823523
H   36.959328   37.542706   97.784218
H   16.563011   86.555450   29.731638
H   18.369530   96.380455   24.128056
H   90.031876   68.822136   75.309578
H   10.080962   64.137161   19.333031
H   77.040474   16.302780   42.869240
H   17.619526    7.780398   41.930290
H   86.405365   21.917542   64.058037
H   58.225021   86.249802   24.931046
H    1.194513   71.567345    3.927487
H   52.649643   23.988895   96.930161
H   60.224155   68.734291   70.336952
H   36.976009   74.001213   66.558655
H   98.842888   50.653656   25.916117
H   98.321671   25.343962   58.494366
H   88.540154   33.118469   34.414524
H   53.705814   93.063690   57.572006
H   64.545029   95.392700   62.764549
H   29.015055   37.378563   77.983788
H   14.483734   56.949024    3.188824
H   80.250290   92.947472   72.789909
H   56.502705   46.147369   73.618401
H    9.140915   24.147320   47.815231
H   29.274578    5.769102   38.853188
H   43.168491   93.683456    5.396962
H   44.720741    6.271834   50.417488
H   11.134332   50.594543   16.541845
H   62.521019   26.766045   49.363243
H   48.261292   90.644783   42.279713
H   99.734756    7.347841   24.797974
H    8.793286   47.293755   24.871590
H   58.957413   11.309828   86.569199
H   79.094994   47.073975   33.003944
H   33.689571    6.723471   23.389656
H   70.688782   49.303341   30.014351
H   23.940161   82.054337   72.288666
H    8.757604   70.868698   95.405548
H   81.574257   68.618958   93.288696
H   28.001886   67.094208   54.678638
H   98.488457   97.188286   37.683403
H   92.024994   18.806034    5.082050
H   39.817039   99.488541    1.885108
H    2.611368   95.547981   51.032539
H   30.268442   96.106445   91.351959
H   65.482811   59.962891    3.007819
H   67.465118   87.907715   17.572895
H   85.545807   74.447426   35.343513
H   21.680523   37.399250   10.229958
H   99.867317   35.668316   75.125336
H   42.207390   23.539080   64.201645
H   14.566641   99.246284   78.238106
H   63.600689   28.359402   86.705116
H   97.925545   39.037762   72.689384
H   57.748688   40.455341   96.197418
H    7.344448   80.284775   74.643593
H   11.228637   76.424210   74.533836
H   29.708170   89.566345   99.451416
H   89.325989   34.030197   13.138177
H   12.278827   40.510902   69.844215
H   37.828175   90.141426   84.137283
H   96.418266   44.901764   58.624969
H   35.310837   10.587111   44.473503
H   57.995224   19.677748   87.869759
H   30.460108    6.440575    0.454195
H   25.778618   39.637478   37.574383
H   43.068974   66.262405   27.464758
H    1.476149   75.446571    0.249010
H   23.730789   12.273190   59.222012
H   71.354134    8.129570   29.371502
H    1.119350    1.051968   12.808193
H   71.282188   50.603191   53.660233
H   24.961721   58.213684   77.144142
H   73.859314   58.101589   32.097916
H   45.431568   52.120304   22.817675
