100
TIME:    4.769, STEP:  4769
H   94.814857   84.679787   94.779861
H   68.767189   63.290627   78.807068
H   61.729446   17.004929   67.366081
H   82.277069   36.168327   78.758553
H   52.455551   55.013885   36.396606
H   54.070683   96.041481   51.036686
H    3.027787   83.363464   63.395016
H   45.052299    1.181804   70.320915
H   36.396812   27.773590   99.894600
H   44.515511   84.859138   94.437408
H   56.654266   58.133579   80.374908
H   73.822578   62.735970   53.466209
H   39.747299   73.199242   51.150146
H   18.948402   90.376472   20.162760
H   38.509727   44.040863   21.530354
H    9.772472   94.614761   37.172791
H   40.612587   97.403839    7.529233
H    3.049888   62.772724   34.207470
H   19.547184   78.419357   14.612391
H   64.029076    4.540953   41.028297
H   81.277504   81.448456   27.805744
H   19.589020   50.414902   13.153839
H   22.071007   55.836250   95.902679
H   75.949707   93.878326   52.886276
H   59.017120    7.953316   71.759987
H   24.806528   85.672836   41.962933
H   50.843170   44.235889   94.590553
H   30.147755   79.040512   24.409273
H   14.868682   81.773125   31.738190
H   83.858276   72.806847   62.510353
H    3.744305   49.700558   32.070839
H   66.874794   20.750572   57.773827
H    6.278683   19.559496   27.426138
H   79.602859   36.672272   70.840889
H   62.226929   98.420120   15.127724
H   87.198914   58.957279    4.434010
H   37.208275   29.885506   84.243942
H   66.878563   71.679832   58.975422
H   43.772373   77.509331   82.160934
H   14.007296   65.726387   13.248938
H    9.324661   19.820150   54.701275
H    3.010008   25.892710   26.851679
H   52.319027   92.098221   45.943382
H   74.826172   92.691406   47.023170
H   42.980099   43.730270   64.206810
H   16.561069   53.878193    2.534353
H   78.992477   84.191917   71.244667
H   56.494106   44.489120   63.656624
H    4.435057   37.480869   54.238182
H   25.897892    3.318579   50.113312
H   43.180775    9.227119    3.699713
H   36.896263   21.211447   60.987289
H    7.794794   49.661011   25.892527
H   66.249748   29.393448   42.258568
H   61.080170   76.533699   40.910122
H   99.533310    7.517198   30.278793
H   98.586639   51.939308    9.559067
H   70.945938   26.514647   90.716049
H   66.396492   40.271469   45.364655
H   44.313419   94.348648   27.968880
H   60.532928   56.790028   42.566681
H   29.653749   83.552902   79.572678
H   97.827385   81.854904    6.445824
H   70.519264   67.741928   97.659103
H   21.611486   79.952393   39.685612
H    8.378498    5.191906   28.163824
H    4.942338   13.239997   97.308823
H   50.938362   90.280960   94.188377
H   94.587570    7.116394   61.130661
H   27.006605   88.009277   91.690979
H   70.595131   70.917160    4.939258
H   80.740936   93.250961    5.785201
H   96.043137   82.411934   39.471939
H   25.224262   47.588268   19.795597
H   92.104256   35.438618   62.920620
H   38.400787   13.220472   75.035538
H   99.948807   13.200745   75.390831
H   56.036617   38.887226   77.814445
H   90.204247   39.510670   70.893562
H   65.644409   49.224407   10.067598
H    4.193929   78.619156   65.020836
H   99.148338   75.372757   87.996361
H   19.524065   86.873840   84.119370
H   78.248886   20.252695   27.842606
H   20.118513   50.582001   85.451408
H   41.534054   84.228233   72.957001
H   85.665443   56.607773   50.947891
H   32.719055   23.476748   46.147720
H   54.654160   28.641504   89.186531
H   44.695187   13.064972   94.698288
H   19.189842   30.944492   34.174358
H   31.156603   54.153503   24.397612
H   91.155754   70.614311   87.798630
H    8.169200    2.507258   48.367237
H   74.137535   22.551422   25.672379
H   87.821411    7.409392   21.124123
H   84.061760   41.363674   62.919403
H   24.370893   56.842865   79.721184
H   81.529022   57.407581   45.583778
H   35.431713   56.251186   38.327465
