100
TIME:    3.094, STEP:  3094
H    8.087950   38.285698   96.313370
H   15.205030   72.497665   73.168594
H   32.937828   96.499283   87.020546
H   81.995926    5.176676   70.571716
H   67.458374   20.755245   81.814011
H   80.042976   97.856133   85.155205
H   90.813988   70.260338   32.407768
H   76.703995   56.271389   24.112904
H   77.571510   88.817825    5.330078
H   90.290733   60.808617   28.847521
H   12.458679   90.736496   41.719662
H   37.751831   78.776993   72.694847
H   46.452568   74.516022   17.610790
H    1.884570   95.539284   92.694283
H   18.135277   93.659042    2.045662
H   77.121155   41.116608   76.212257
H   75.306038   86.614807   55.047375
H   67.261192   44.239510   92.279968
H   93.457237    8.148967   26.366442
H    9.162735   40.110500   26.986506
H   80.674377   48.200417   73.264679
H   59.005142   48.191315   55.795593
H   44.434669   69.458916   43.828018
H   31.575409   73.789368   77.286751
H   18.924973   40.790016   59.389687
H   32.472172   35.418652   99.171120
H   95.279526   13.862556   61.363529
H   71.478416    0.857179   69.044914
H   78.446640   29.803576   10.917559
H   19.631069   14.263766   29.352299
H   37.823421   99.501038   64.591515
H   61.114235   67.025017   12.836952
H   88.294647   42.110146   76.528908
H    8.829684   90.176186   41.405075
H    3.862066   25.037598   13.132118
H   41.565853   27.534422   10.004327
H   76.553383   91.226059   52.260372
H   36.110519    2.325320   40.776051
H   14.472863   14.004374   44.480392
H   71.772507   22.533087   81.464149
H   23.798567   62.343739   15.239058
H   53.550072   50.719849   48.159592
H   37.891270   82.053741   24.956806
H   81.786560   64.628204   83.248619
H   88.273933    9.819094   20.872972
H   38.170757   21.930103   95.731850
H   65.906540   93.099396   55.161369
H   56.404652   27.238916   60.017113
H   55.468277   76.203972   21.052629
H   90.771141   77.835121   67.264923
H   43.308567   70.937714   86.039474
H   55.495045   76.639618   70.947533
H   73.058418   39.948792   23.174225
H    5.045849   56.728233   68.346222
H   94.443985   29.734367   26.663668
H   97.437515    9.280294   87.299744
H   92.398415    0.270391   50.252632
H   95.670891   84.697296   33.862381
H   34.293808   69.497726   73.955956
H   54.845650   65.604279   75.609871
H   54.872749   34.686764   73.162491
H   89.102501   99.143570   55.362343
H   84.112328   96.153740   21.305618
H   55.499779   58.625092   43.139744
H   55.129940   13.731002   83.699638
H   11.275820   88.461006   29.125416
H   39.331490   55.328388   16.440584
H   66.642006   94.485779   14.113692
H   11.105694   27.471214   66.183662
H   93.070129    3.761173   95.218048
H   23.784206   84.883736   25.034363
H   18.852999   48.841339   83.150299
H    5.256531   65.262627   82.417473
H   62.103336   53.585884   19.322929
H   11.346370   33.048901   35.944614
H   98.799370    5.868588   87.742584
H   47.870449   58.380257   45.768559
H   77.342072   48.412083   85.309952
H    9.882339   44.430676   52.202255
H   47.789803   40.448116   54.370316
H   71.426559   61.290508   64.909866
H   73.471207   64.433731   28.059488
H   13.556133   58.901184   24.587986
H   63.011173   76.919159   80.827515
H    1.676612   55.354107   47.823784
H   80.083679   22.701382   56.639980
H   73.795982   78.393913   71.077148
H    5.761087   57.581238   63.565819
H   19.892414   21.903151    2.886830
H   92.787109   81.980057   34.821014
H   50.641846   40.498676   98.801346
H    7.216298   28.192225   92.479149
H   83.786072   20.351896   58.268211
H   46.275097    0.906090   35.431358
H    3.095825   72.588562   87.184258
H   49.473312   73.552742    7.639828
H   17.015324   45.238796   59.250877
H   18.224081   42.581238    6.529709
H   61.322411   50.187313   85.881737
H   31.391161   99.238228   99.684250
