100
TIME:    2.406, STEP:  2406
H   54.614166    1.378943   96.943253
H   34.343025   35.194054   29.769674
H   21.111776   47.000992   95.093544
H   81.880447   33.523888    8.281462
H   73.620728   65.609024    0.469004
H   90.708992   98.601494   17.019838
H   26.872379   23.801941   78.605186
H   30.779442   96.752136   87.282967
H   94.483864   54.966324   48.638477
H    9.091463   50.929955    1.904408
H   76.454773   63.053150    7.991735
H   64.012695   44.290909   21.667158
H   90.216820   16.141258   85.992058
H   35.950188   97.659889   40.338154
H    9.765709   55.113495   35.117836
H    4.783886    1.291436   33.323013
H   30.628632   41.109627   92.413940
H   52.559845   77.696785   16.133308
H   82.738731   79.288528   90.120392
H   27.697037   54.718533   80.144325
H   21.501175   16.692112   91.940704
H   93.045914   47.277985   14.385117
H   53.620461   75.054375   63.511856
H   95.498016   65.537903   28.383331
H   43.530998   95.356628   54.313660
H   35.626835   55.916088   63.656471
H   54.607422   42.462917   47.710819
H   29.530916   68.743660   46.302059
H   63.486923   67.383125   43.438805
H   93.250679   31.291733   74.658806
H   10.748181   37.805019   19.025501
H   17.673317   86.036980   76.528603
H   39.833042   92.448280   14.548436
H   79.760185   53.227188   70.390182
H   20.965233   77.044922   71.236046
H   81.746597   73.489067   12.369012
H   10.566060   16.423037   98.048828
H   64.544579   14.917431   92.226662
H   43.515640   28.992960   11.153112
H   36.575260   86.941597   27.332888
H   70.816582   38.738880   99.028854
H   15.383636   19.839844   15.837414
H   31.965124   77.928009   75.260643
H   25.719469   53.096382   15.980258
H   47.952518   36.962093   61.999001
H   47.046856    8.807545   92.939369
H   60.528156   55.684357   48.552849
H   56.367908   20.155359   17.447533
H   35.359268   33.184383   48.498726
H   76.346825   67.368568   15.386372
H   43.361057   37.360100   78.785324
H   22.059546   40.480335   16.111912
H   58.789658   35.959534   63.134460
H   20.976635   67.954048   37.985870
H   49.219284   69.428711   20.821730
H   96.576675   10.003359   10.720886
H   48.780865   20.123177   84.818001
H   46.900970   49.670761   51.583084
H   80.032692   40.428631   26.772959
H    0.248617   12.720526   95.178230
H   11.472719   66.680000   26.805271
H   13.519505    5.548502   86.490509
H   37.430157   43.082466   68.497238
H    8.254637   54.882538   61.821018
H   27.819672   68.681763   19.626932
H   53.540810   22.663521   88.446846
H   94.530220   31.545012   83.223587
H   14.167055   55.139099   81.223312
H   76.817680   76.906517    9.331510
H   79.128723   69.159248   96.666779
H   45.631630   31.695883   33.288860
H   75.580872   71.674591   32.777420
H   50.116211   99.297295    0.054215
H   77.242180   97.122543   60.212822
H   78.173729   32.067333   83.788803
H   82.537895   61.776093   34.036564
H   85.404327   18.010466   33.601322
H   45.018581   93.398033   47.315212
H   76.888275   46.451550   44.522934
H   81.530525   77.918945   13.642058
H   57.965710   54.172832   23.789543
H   21.848022   59.940567   85.588966
H   70.029984   47.416321   59.059483
H   15.680737   18.046114   43.668304
H   35.177795   98.386658   14.517608
H   95.914734   97.430183    8.863173
H   27.846029   28.417130   38.270752
H   94.687012   12.664204   70.725166
H    5.613273   60.209831    8.515692
H   53.616367   10.284698   10.227324
H   22.486084    3.349389   84.272049
H   56.309925   76.455376   79.367088
H   39.657139   99.726303    5.049640
H   79.777077   59.175686   89.042793
H   14.992466   34.214928   71.374199
H   92.647293    0.721645   43.176025
H   71.625443    5.755982   98.818016
H   15.699145   36.723328   17.538406
H   94.097313   47.221615   43.510674
H   88.662033   16.903194   65.953522
