100
TIME:    7.741, STEP:  7741
H   93.830315   12.134482   92.058914
H   86.689499   24.337040   66.201431
H   12.831644   30.821960   32.472118
H   82.775909   13.721054   15.851717
H   25.832991   93.232628   55.814651
H    7.974288   92.821693   45.363472
H   47.263699   84.047104   95.809433
H   11.458961   58.295841   97.440285
H   63.339317   42.027863   12.818130
H   63.325569   27.534288   10.810108
H   80.206070   77.718597   94.097366
H   60.390938   11.706795   41.915825
H   50.131889   93.433777   55.826900
H   71.793251   81.215950   46.334232
H   74.628181   78.568558   78.636505
H   90.273849   34.672913   90.470001
H    1.621780   93.978409   78.082123
H   66.604797   18.161728   31.184906
H   65.829910    3.096048   71.186600
H   83.960648   41.423923   43.375862
H    4.914795   85.576233   47.138325
H    4.517548   54.360275   60.060623
H   82.388695   31.665327   10.870603
H   99.807022   29.433077   32.159477
H   52.721382   72.260834   93.708961
H   11.107891   97.898788   62.420883
H   94.563660   20.692202   53.563847
H   79.378258   17.763403   22.648142
H   79.491280   51.415913   91.251457
H   97.818176   99.249344   98.776360
H   20.711966   16.206390   96.935799
H   54.528713   38.635227   82.640938
H   15.622242    2.114435   95.167366
H    5.176991   64.306252   45.634720
H   88.303459   73.567711   96.019775
H   45.549351   91.736832   95.089516
H   22.261959   21.043413   18.425688
H   44.042068   17.286762   68.701164
H   18.321117   12.754156   94.152260
H   34.078011   87.496811   47.080696
H    6.209453   21.795835   24.719084
H   47.844673   71.959488   75.150993
H   77.906281    9.923822   60.612850
H   85.054626   42.574791   37.609386
H   85.181175   26.472424   18.528358
H   78.202202   10.562800   14.609934
H    2.212573   45.820442   99.769264
H   56.660091   75.099777   47.546749
H   91.308540   91.340889   35.682129
H   88.263916   48.556408   42.281784
H   42.970058   22.300093   35.027939
H   81.340942   45.431667   65.888367
H   69.444176   66.893677   53.285713
H   97.430878   80.903351   73.405472
H   24.445210   36.989059   66.190292
H    3.237165    4.390943   29.104889
H   86.997787   66.183128   92.220879
H   49.644699   45.845665   14.164227
H    0.790090   65.854195   17.209370
H   48.191902   22.786892   43.438133
H   48.009106   18.579609   10.847407
H   24.174721   55.889938   45.099091
H   99.596519   79.050934    2.646851
H   74.601189   83.931564   16.969799
H   39.576424   42.583675   16.454596
H   25.805775   57.445274    3.892299
H   66.493561   15.989388   40.798260
H   45.642006   60.253532   36.267166
H   42.713142   93.567451   74.731476
H   87.240440   37.454426   85.425064
H   76.220528   68.704544   69.293556
H   35.815029   94.567772   23.458719
H    2.262914   35.411007   63.273396
H   59.795597   59.490475   43.209198
H   35.362259   39.713406   88.229599
H    8.657180    3.697804   75.057533
H   69.830772   55.798172   28.028708
H   95.666580   44.556988   41.946651
H   32.722191   30.780964    4.045883
H   19.899273   87.330162   54.027107
H   62.357903    9.366555   42.651901
H   22.175274   94.672150   39.392162
H    7.509862   36.574986   67.157684
H   82.717430   74.573242   56.395649
H   75.407684   64.673363   97.349983
H   73.134140   93.393539   79.341675
H   84.158669   40.518715   92.664024
H   80.525597   85.631714   15.315819
H   16.331596   63.165688   64.879402
H   81.930634   90.789444    0.940256
H   40.816334   91.423546   96.937546
H   51.054508   77.676697   81.022804
H   81.666580   59.789173   17.627993
H   95.404030   82.810387   48.762493
H   22.754940   56.338837   93.967102
H   33.296478   90.048828   67.616173
H   48.157951   11.919724   91.996437
H   23.335398   69.482735   23.481031
H   39.949547   70.229713   96.646690
H   20.035089   79.986221   52.025799
