100
TIME:    1.833, STEP:  1833
H   93.364410   53.925858   97.467850
H   50.282036    4.126681   93.625389
H   11.262465    5.777785    1.817986
H   81.784271   57.130760   39.690334
H   78.753036   19.680546   16.004730
H   99.592171   99.222267   60.274670
H   56.901569   85.110558   33.795845
H   75.816109   47.179188   39.894302
H    8.569359   10.057957   84.706398
H   24.748503   42.702522   79.468803
H   29.753830   39.997105   63.184681
H   85.879654   15.569233   62.454033
H   26.665611   50.808388   42.943504
H   64.322151   99.426033   96.731361
H    2.795485    6.296491   62.663559
H   27.824112   51.409172   80.886490
H   76.697006    3.216219   40.244743
H   40.314873    5.561787   35.999802
H   73.811836   55.251640   59.930416
H   43.133308   66.885849   41.131783
H   55.503815   73.736938    7.493938
H   38.107914   46.519287   63.179466
H   61.270836   79.714546   79.905518
H   48.735970   58.665684   70.940567
H   64.025261   40.800308   50.086281
H   38.254192   72.989655   17.365477
H    4.016758   66.283585   36.340176
H   77.878281   41.997952   27.361116
H   51.027740   15.396234   70.525505
H   71.278801   45.473343   29.106426
H   88.206764   86.419388   64.364471
H   81.493988    1.870620   29.574059
H   99.471024   34.370766   62.928070
H   55.550026    5.739265   94.530396
H   35.209740   20.359566   36.345055
H   31.927345   28.475348   14.338437
H   55.606934   37.408546   52.898502
H   88.230141   25.405003   51.790287
H   68.317215   41.378853   66.443558
H   90.545341   40.583988   82.251175
H    9.976646   19.078165   85.529221
H   66.881592   94.122978   88.917603
H   27.029539   74.491898   33.873108
H   62.309746   43.491882   59.954220
H   97.656685   59.567860   12.964769
H   54.439304   97.878456   90.613655
H   55.434864   24.620516   43.286079
H   56.337307   14.255827   81.993599
H   18.611502   80.640099   71.356644
H   64.333549   58.648830   55.461224
H   43.404774   92.678871   72.743713
H   94.213905   93.650192   53.729900
H   46.903160   32.637085   96.411522
H   34.244572   77.300621   12.701956
H   94.834427   19.195189   15.960453
H   95.859726   10.605553   30.227158
H   12.456774   36.656731   30.321096
H   89.568207    3.783075   66.341751
H   34.841469   16.217047   70.763870
H   38.059322   68.679337   11.474998
H   75.327621   93.329536   71.479820
H   33.854401   10.882999   12.416091
H   98.563416   82.156212    7.807244
H   68.909302   51.765556   77.375938
H    5.076128   14.445065   66.265854
H   88.741280   51.149147   54.566616
H   40.503922   11.735147   55.559826
H   53.747963   22.368622   53.830601
H   48.259697   18.078629   45.270584
H   67.517639   40.337791   97.873352
H   63.826408   70.683403   40.163486
H   22.828169   90.691238   90.825310
H   87.476273   27.638767   14.747234
H   89.849998   33.383408   94.267921
H   50.547073   31.251841   40.352154
H   68.994545   25.050333   72.591057
H   33.379204   67.675766   23.466013
H   18.098003   30.864904   15.668899
H   49.414360   48.132664   38.129158
H    9.631664    9.124399   63.006599
H   46.752445   48.244884   89.543129
H   78.855469   56.198441   33.503616
H   33.776676   37.851166    4.484121
H   76.264595   69.013771   96.005615
H   63.077621   34.229111   70.063675
H    9.102299   76.385094   69.072319
H   89.576637   70.078888   10.947779
H   85.462845   58.540146   76.688087
H   93.721626   92.114082   13.203186
H    4.276121   33.860970   89.743279
H   99.036415   72.407166   72.171341
H   13.910669   33.364483   68.446724
H    2.893344   82.554489   60.721054
H   24.393978   24.417231   50.407753
H   24.900795   85.540558   58.206810
H   45.319885   23.347815   72.772049
H   17.107574   72.872643   31.771896
H   13.595292   31.844574   26.707928
H   21.392780   44.751637   91.509445
H   53.076859   31.620331   21.141727
