100
TIME:    2.737, STEP:  2737
H   32.229645   71.024498   96.640213
H   25.135674   53.141571   50.649097
H   26.801344   70.814850   91.209587
H   81.936005   19.885984   90.138733
H   70.655991   92.140137   91.494019
H   85.577522   98.242897   49.800564
H    9.524864   46.153633    4.489863
H    4.763496   25.387423   56.892559
H   86.347252   23.142120   27.802238
H    0.046994   55.682625   14.866801
H   45.665955   76.371735   76.107254
H   51.378471   60.882324   98.106911
H   69.160622   96.114914   53.092903
H   19.560799   96.639656   65.528160
H   13.792347   25.547213   19.206751
H   91.475021   72.341034    5.846249
H    4.013835   63.000496   22.548258
H   59.633293   61.600334    4.656948
H   87.895454   93.172791    7.559328
H   18.780098   47.690540    2.680336
H    1.859243   83.740387   82.955582
H   24.779205   47.717392   86.197464
H   49.201134   72.362373   54.041870
H   64.744553   69.507721    3.799509
H   31.692287   69.103302   56.755653
H   34.109112   46.054676   32.632797
H   26.063885   28.702700   54.279202
H    1.602360   84.193626   57.244312
H   70.684113   97.414345   27.792204
H    5.942645   23.099564    0.972702
H   23.772684   67.486740   92.836220
H   38.572945   76.890236   45.886253
H   63.149410   68.230370   44.367531
H   93.745461   22.892929   56.445312
H   12.736697   52.023956   91.393227
H   10.525697   99.489861   11.231351
H   42.312828    4.300192   24.130064
H   50.864769    8.859165   15.584595
H   29.542992   21.781881   79.076752
H    5.398989   55.955147   53.376385
H   48.196445   50.095287    6.828511
H   85.635185   34.696358   31.387136
H   34.816219   79.912918   99.170464
H    4.583672   58.644531   48.342979
H   19.241484   23.903614   90.323097
H   42.776524   15.120869   94.282845
H   63.116619   73.684906   51.732239
H   56.385586   23.563292   37.927956
H   45.033806    5.771905   35.293777
H   83.286430   72.404076   92.235748
H   43.335804    5.403528   82.275330
H   38.145115    9.765667   94.382195
H   65.655418   37.878784   43.909126
H   13.312260   62.554214   52.592377
H   22.867470   98.444748   23.629896
H   96.990829    9.655495   99.452866
H   69.764519   10.572021   16.299065
H   22.253754   18.411682   43.057571
H    6.138984   54.413906    1.361830
H   78.404541   38.163219   85.763802
H   32.353249   51.287678    0.998564
H    1.772934    2.466969   71.515305
H   59.882862   20.510427   45.789474
H   30.983866   56.683098   52.833370
H   40.958561   42.244534   50.453125
H   33.206856    6.208508    8.017893
H   67.973854   42.987331   99.203873
H   91.302330   74.068970   97.047028
H   93.313133   53.122963   88.572426
H   85.835999   85.806221   95.969788
H   35.121208    9.173923   29.317371
H   48.288567   60.689407   57.013008
H   28.534540   82.923058   91.569084
H   69.959129   76.177460   40.540504
H   94.133812   32.539570    8.880829
H   90.361366   82.989128   11.764654
H   15.456465   89.321915   39.455036
H   60.569561   71.755959   65.595856
H   92.762497   45.479298   48.217491
H   65.297707   59.892567   85.126266
H   64.443008   57.597179   43.572453
H   46.684639   62.102249   57.911354
H   90.970016   52.941742   90.585693
H   38.451626   46.370209   13.435059
H   19.060127   77.684006   82.431038
H   88.298340    9.588158   31.848919
H   49.952766    4.350739   54.054062
H    0.015457   86.163681   67.280617
H   12.482927   41.779976    5.807652
H   24.350655   96.666214   22.059448
H   36.031952   21.222332   91.262161
H   80.801361    1.345129   85.675362
H   60.895161    9.644009   30.657475
H   11.768703   79.252663   11.360909
H    9.268806    4.565070   78.980492
H   19.986603   87.650581   26.079544
H   45.351913   24.751171   79.782082
H   16.913984   39.541595   12.241976
H   78.329155   48.648426   15.785080
H    9.218246    8.401108   34.073761
