100
TIME:    5.285, STEP:  5285
H   59.919350   37.359840   94.307449
H   54.516090   91.249649   11.341289
H   70.601913   54.127853   61.309582
H   82.363678   14.908199   50.474930
H   47.833786   96.373566   22.406685
H   46.067234   95.482460    2.137041
H   75.982475   18.205570    3.746914
H    4.495720   45.821079   22.942440
H   23.712547   78.162140   67.416267
H   30.414232   92.268135   14.643591
H    8.657196   78.896088   30.671871
H   54.128891   88.600533   16.736986
H    6.820175   41.996422   99.877617
H   93.399651   88.786018   59.432014
H   44.784935   97.950302   96.726501
H   89.024918   49.483658   94.339569
H   99.118752   31.532421   54.502747
H   14.083863   37.667957   16.320524
H   27.584095    0.063712   41.795773
H   50.128342   93.581825   76.160011
H   50.657326   30.078911   13.800694
H   69.058441   51.099899   69.211716
H   15.181546   51.639656   81.139801
H   28.004959    0.052216   14.562703
H   40.561554   67.033783   75.570778
H   22.454309   70.421799   93.440506
H    6.347021   22.785290    4.827771
H   86.608833    3.125627   41.467285
H   26.088570   28.588282    7.347933
H    3.644246   60.035973    3.531329
H   24.052711   95.972107   91.246559
H   99.455482    6.494932   10.005089
H   42.625729   81.806816   73.911491
H    1.404746   89.384087   49.102058
H   49.400940   59.414627   46.547066
H   32.053211   99.372139    2.810908
H   86.699188   10.987053   24.902508
H   45.552563   62.238728   95.389977
H   21.990238   66.265923   32.156113
H   65.404549   17.419044   53.847912
H   74.059509   37.523796   66.858009
H   56.634789   49.052193   51.090359
H   56.763638   95.192520   83.214790
H   41.878071    1.351296   97.475754
H   98.221428   23.373245    8.361964
H    9.903093   63.720112    4.631986
H   83.023727   12.253942   76.197121
H   56.521664   49.803757   95.583809
H   19.516930   94.746704   33.652824
H   36.720066   11.172430   14.024963
H   43.141407   59.410919    9.139342
H   61.973473   73.331528   27.111404
H   18.498119   52.652954   95.924126
H   54.300919   20.972702   65.028831
H   19.995487   21.756834   45.299618
H    0.178157    6.974416   12.712936
H   31.297890   37.050453   58.634941
H   32.523087   77.784508   77.425522
H    7.094122   62.073288    5.750267
H   10.264151   34.010937   13.292610
H   93.082123   32.795429    2.336518
H   11.341875   78.750046   56.226334
H   32.858662   46.644455   71.062134
H    5.950582   70.552780   83.652084
H   42.093491   38.739895   87.737801
H   76.680138   79.540123   58.673775
H   63.543091   31.079308   22.222324
H   15.294848   19.792189   18.856161
H   20.305151   70.039940   28.766495
H   37.459663   13.961893   90.604431
H   54.210304   35.809067   98.749367
H   38.194740   76.126022   43.564995
H   62.399521   56.887032   26.240463
H   13.866688   14.931751   89.137199
H   16.982809   36.174793    2.036426
H   50.600830   46.292137   40.315937
H   46.798992   68.478462   84.516258
H   80.279236    5.146717    6.309496
H   14.948869   37.995014   76.649117
H   40.339752   21.119263   65.613770
H   14.290939   83.957413   95.861473
H   37.865974   78.742630   44.849388
H   52.163803   95.503235   33.260448
H   13.749895   64.408005   80.713684
H   94.992989   18.304443   35.430840
H   29.656826    3.180163    8.789674
H   20.127935   19.090378   75.552689
H   41.025635   82.165085   40.781906
H   65.362167   99.912422   84.966316
H   99.073120   91.835495   13.144083
H   40.306664   58.805073   45.071331
H   69.335381   92.962158   34.227722
H   24.232012   86.097023   27.701740
H   58.042198   33.807934   83.158623
H   65.216820   76.331932   37.528873
H   30.440948   87.033173   94.471619
H   43.103630   70.976036   33.244049
H   26.264479   61.236298   71.461845
H   56.947845   59.631855    2.362017
H   67.481369   43.011837   88.619751
