100
TIME:    3.588, STEP:  3588
H   74.680573   92.983521   95.861099
H    1.462823   99.279617    4.329926
H   41.429207   32.038536   81.223946
H   82.078842   84.824028   43.492931
H   63.033661   60.351528   68.419266
H   72.384529   97.320946   34.077492
H   64.921501    3.615640   71.039207
H   37.876572   99.010269   78.756035
H   65.428047   41.321884   74.236000
H   76.790459   67.901726   48.193390
H   66.508011   10.613434   94.135323
H   18.895920    3.538677   37.530815
H   15.030086   44.628479   68.510216
H   77.424339   94.016640   30.288509
H   24.144821   49.532516   78.301247
H   57.258942   97.909355   35.206398
H   35.581612   19.289570    0.018143
H   77.814171   20.216408   75.153992
H    1.153033   28.874262   52.390842
H   95.853508   29.621164   60.620354
H   51.359711   99.019897   59.856026
H    6.365402   48.847107   13.726898
H   37.839058   65.441246   29.694256
H   85.677406   79.714111   40.597668
H    1.257401    1.612083   63.038002
H   30.205557   20.699568   52.867065
H   52.682178   93.327713   71.163734
H   29.797144   23.915405   85.371880
H   89.188065   74.623489   87.566078
H   38.572433    2.036445   68.624329
H   57.267284   43.798237   25.507805
H   92.305824   53.376923   67.104927
H   23.091002    5.967525   21.032331
H   29.703529   44.903908   20.594128
H   91.582535   87.694725   43.211876
H   84.521233   66.342560    8.301709
H   23.935226   73.135239   91.185783
H   15.694261   93.286568   75.636055
H   93.621094    3.242220   96.608757
H   25.244274   76.287186   20.330252
H   90.037796   79.295975   26.877424
H    9.152184   72.890900   71.368607
H   42.146381   85.016113   60.637554
H   50.240692   72.904755   31.549879
H   45.422939   90.327698   63.145687
H   31.797512   31.352406   97.736916
H   69.765915   19.965549   59.906441
H   56.431034   32.325195   90.583061
H   69.908554   35.291214    1.346158
H    1.128536   85.350349   32.714870
H   43.270878   23.245441   91.248123
H   79.503067   30.799320   38.516773
H   83.302345   42.813171   94.483650
H   93.605064   48.666512   90.145660
H   55.111526   73.028748   30.864130
H   98.055618    8.760183   70.482819
H   23.715769   86.016319   97.236000
H   58.886223   38.045593   21.136894
H   73.254036   90.370010   36.030293
H   22.248253    3.572737   61.559334
H   86.034187   11.714280   34.646992
H   71.569481   94.545486   33.008873
H   17.649202   62.444511   87.430534
H   89.421013   61.312332   29.726154
H   74.737572   74.277046   29.704302
H   80.928719   63.902718   58.334366
H   99.696060   72.407227   40.291546
H   32.518196   22.739023   37.729748
H   35.727867   91.975540   35.199627
H    3.079736   28.608168   94.177826
H    8.096548   51.272499   19.107735
H   78.119675   32.446533   19.317894
H   73.047073   40.828518   69.753899
H   51.227627   22.323269   89.967735
H   35.163631   33.753689   73.392616
H   10.478269   37.529770   54.501781
H   92.721962   15.562271   54.504917
H    0.551089   16.109591   12.590803
H   33.570251   42.979641   57.716187
H   23.563179   13.543083   11.811754
H   81.090073   66.401169   94.435593
H   10.535600   67.659927   86.750854
H   44.811718   67.147583   71.639191
H   96.999191   19.191879   35.708359
H   77.623276   24.452724   99.936172
H   68.716614   40.847771   90.944702
H    6.789145   42.476097   94.632904
H   13.711626   18.030182   58.428780
H   30.145763   94.398552   98.845589
H   49.111568   61.657600   52.478409
H   70.858337   67.171776    9.233804
H   43.770012   65.342339    1.893659
H   15.452056   35.175064   96.469994
H   94.021187   30.870983   68.737846
H   94.554909   28.338390   98.536247
H   90.275650   54.044807   82.123955
H   77.803925   73.588615   30.840673
H   20.036932   46.787354   98.624825
H   37.789268   52.316753   44.504745
H   62.073948   86.559578   52.096909
