200
TIME:    0.135, STEP:   135
H    6.244706   62.823467   13.544142
H   27.028416   31.345201   85.634598
H   20.338476   64.542320   40.176384
H   14.303154   75.746498   47.245419
H   16.324984   81.068039   55.168148
H   93.034424   55.664860   68.657646
H    1.837994   55.378632   47.619007
H    0.535629   84.352234   28.799385
H   83.164291   89.080360   50.280891
H   14.557415   76.369682    0.214058
H    8.533813   92.351143   89.643570
H   30.343613   39.220242    7.739194
H    8.597079   83.523155   65.595116
H    9.366814   52.763935   37.206142
H   24.691345   71.136292   43.236942
H   32.360939   30.292633   56.588078
H   79.267914    2.800876   20.529963
H   39.055561   78.119392   45.389702
H   61.531887   33.503193   40.938137
H   89.722198   81.146629   41.541042
H   56.824966   71.516747   30.650997
H   92.366600   44.800926   74.620979
H   98.149475   63.304893   51.655624
H    6.396910   87.121864   91.917267
H   98.682632    8.480941   49.157032
H   18.748011   57.676758   10.424452
H   96.862602   56.689899   44.860138
H   92.100616   65.797958    0.454991
H    6.646211   59.721260   38.953197
H   97.794258   17.951530    2.257938
H   13.498578   47.062504   16.066439
H   33.835442   61.045395   91.018021
H   29.660339    6.726174   71.896614
H   99.901665   63.463364   36.455009
H   53.027271   94.139694   35.017773
H   36.491108   52.315998   78.272446
H   83.250778   76.695274   85.166664
H   38.108749   42.039230   19.888445
H   56.956322   50.160515   42.097668
H   91.089714   40.120274   67.797943
H   80.473068   10.128683   98.038902
H    8.113024   45.308674   42.944561
H   78.592422   90.194000   46.429394
H   37.515182   58.134640   14.993043
H   25.189541   73.091606   40.574776
H   42.537395   16.571123   41.545929
H   77.995468   31.356358   93.876686
H   92.672089   65.552208   51.422379
H   83.019661   32.736767   61.090630
H   65.874695   17.327662   10.154725
H   80.706024   71.825119   32.029976
H   25.151960   33.890728   61.283779
H   49.345325   97.427109    6.554512
H   23.969313   79.967896   80.148254
H   81.643326   78.720100   94.169159
H    6.651680   74.936768   75.209961
H    5.730140   16.348122   50.780918
H   66.261520   56.138485    7.198560
H   30.396767   72.449112    4.586941
H   45.531784   96.578773   68.935265
H   50.759579   17.424984   45.304264
H   88.050133   16.176146   48.261490
H   68.554588   23.031319   88.427322
H   21.581987   65.002533    1.323175
H   69.660484   74.513748   13.635924
H   42.858486   12.481879   30.975937
H   90.097267   25.376791   83.665779
H   97.929420   91.211205   85.192734
H   12.787707    4.434323   63.308807
H   45.841385   39.799904   50.988201
H   58.511227   74.776070   70.472733
H   35.091293   26.581776   45.499825
H   74.161270   23.847836    3.011555
H    4.444624   11.272622   57.516083
H   77.866501   99.171776   72.549812
H   50.659760   22.783630   63.563602
H   95.871384   26.041296   73.630791
H   30.444315    4.057945   51.558006
H   10.732277   25.015282   37.264011
H   69.858238   91.252541   99.241180
H   38.911655   31.876656    2.692186
H   22.019598   70.478409   91.103233
H   11.409369   12.514539   93.351883
H   28.098110   58.426140   90.429291
H   42.647289   98.213547   60.757832
H   21.709002   89.448105   29.968586
H   31.149237    2.565312    1.530610
H   76.204674   22.452244    7.481825
H   62.476185   71.789513   76.784210
H   23.970043   81.340775   56.020672
H   45.644318   33.986366   81.221519
H   84.786819   87.614212   96.076736
H   42.271729   18.046305   98.720284
H   64.736313   98.205963   66.221558
H   22.464293   58.346527   63.566650
H   73.620369   25.361713   33.998497
H   77.881264   17.910898   93.807091
H    9.781208   26.807096   47.599422
H   39.397133   70.829857   52.509144
H   65.378754   96.221069   27.224771
H    5.181564   77.523254   63.995487
H   86.667809   75.068016   66.443787
H   21.002844   41.007156   29.035452
H   16.830460   67.745621   85.992714
H   25.477928   28.852604   21.683319
H   83.266266   31.913654   48.806637
H   60.684361   28.793013   56.747894
H   65.369637   30.242908   22.801712
H   70.128143   41.415051   94.055305
H    0.993777   29.524374    5.023367
H   45.813068   96.979218    0.721976
H   81.777840   60.704517   89.315140
H   58.917713   79.056206   96.219269
H   63.579857   21.661016   77.661652
H   67.354210   77.596237   30.454252
H   18.323551    8.869078   74.197563
H   36.891994    6.964170   82.956039
H   41.303837   21.828270   36.077354
H   14.874734   53.771465   88.729095
H   68.011673   44.579220   45.425846
H   39.458687   21.061687   90.960495
H   22.819641   29.967403   45.099575
H   29.704962   26.250973   20.914326
H    5.624310   71.097549   22.463240
H   80.058235   11.551822   96.285843
H   43.875530   59.479332   27.558735
H   97.996574   48.699661   75.109863
H   77.725388   86.746452   34.115772
H   91.175568   56.284424   87.283112
H   62.655891   24.647020   64.712784
H   44.370407   88.934784   99.398720
H   85.730270   85.009964    6.850851
H   92.780617   77.486206   96.594093
H    6.069265   10.310805   48.414539
H   99.239006    3.268666   61.241829
H   65.154671    1.761608   85.228500
H   68.718880   86.296959   50.111572
H   90.322731   67.498970   84.857422
H   43.568710   42.865242   71.574921
H   43.391068   14.125860   98.375046
H   45.419407   66.156731   11.518244
H   62.072052   37.820499   43.799171
H   58.380878   54.828369    2.925780
H   62.524406   30.328650   76.384468
H   35.366444   73.249397   45.635090
H   42.092915   60.166477   34.874989
H   42.247887   97.237617   48.033714
H   45.519531   77.327194   69.427391
H   62.378269   69.175827   98.988274
H    6.102225   87.509071   93.924362
H   79.921242   59.526730   52.136871
H   29.367493   10.015026   51.442791
H   71.297935   35.764713    7.150750
H    7.134227   98.732430   78.547241
H    9.448891   51.106079   58.853436
H   60.385071   43.268551   50.830578
H   58.212170   57.734917   79.512497
H   44.553242   38.344582    7.264182
H   17.187445    2.129968    6.498746
H   64.856583   61.228027   74.211609
H   52.924549   88.675171   86.207672
H   48.533993   23.600439   36.453609
H   60.699627   39.147755   37.275711
H    7.420552   17.095078   75.691284
H   59.959549   18.525530    8.792846
H   10.104642   67.779778   62.875801
H   76.707886   99.265266   51.108589
H   23.540489   26.155285   43.670826
H   92.646225   28.511673   37.104870
H   21.681255   11.252089   91.585754
H   81.370911    4.385126   35.984886
H   49.790260   69.346802   57.135677
H   35.644192   81.965958   93.378433
H   72.515678   77.061295   71.811874
H   76.318085   95.826416    4.168215
H   97.665428   47.093681   23.186008
H   36.496407   49.641102   82.515610
H    0.799413    9.100723   63.537579
H   78.286812   23.820475   70.362907
H   91.295303   53.328773   84.903793
H   83.334816   81.426712   44.160610
H   17.109795   29.977871   65.782967
H   70.468903   90.274704    3.991861
H   49.194618   25.025875   73.327446
H   84.165123   92.888557   78.829422
H   97.062248   35.337769   83.428688
H   27.696068    6.323156   96.938797
H   95.465492   62.777031   21.852564
H    9.659101   60.705170   65.343384
H   47.704182   58.844486   64.376419
H   42.804268   34.498257   80.051277
H   48.513683   82.075729   25.961802
H    1.768181   15.026036   55.400951
H   36.938053   59.340199   31.197136
H   88.497894   58.945297   22.159750
H   75.071793   10.125796   31.004923
H    8.763333   82.696327   99.922745
H   31.961029   99.493011   49.927929
H   13.313509   11.318096   82.713036
H    9.102921   38.549965   99.207573
