100
TIME:    0.152, STEP:   152
H    7.043567    8.082166   99.006851
H   97.042030   12.985947   87.588654
H   82.376007   84.839500   21.555138
H   81.502121   26.388266   31.831274
H   93.809601   84.940994   61.583885
H   25.659309    1.048218   93.798302
H   45.003704   71.602318    2.339109
H    7.939398    1.752653   94.237495
H   49.891548   71.679184   90.519051
H   70.686684   18.569420   13.641031
H   86.116364   72.358597   25.108391
H   50.040325   31.309486   82.109764
H   33.593925   52.511215   10.021691
H   47.555866    4.608616   68.808296
H   82.351662   56.444359   43.466320
H   95.411896   98.441872   20.422283
H   11.845644   92.049110   87.194145
H    4.392889   87.308777   94.276657
H   47.631180   84.729858   71.369446
H   88.534889    2.345156   26.557764
H   55.256653   41.085640   53.115952
H   76.922523   44.300560    6.312639
H   83.714607   93.386009   28.001984
H    4.919100   38.504765   95.785477
H   24.146540   74.118813   37.680740
H   45.958912   23.083473   74.924309
H   48.972050   36.158543    2.982562
H   19.715523   63.534023   71.800186
H   14.476321   62.882565   49.986847
H    6.822341   87.077682   95.472588
H   22.080996   35.672920   97.384026
H   75.354767   48.310753   85.192696
H   81.064880   57.361061   11.490315
H   84.524391   59.792786   65.347801
H   76.993629   47.430191   33.984108
H   85.770744   96.426018   20.121321
H   94.378029   98.968575   20.442116
H   57.706131   56.172207   33.167522
H   43.887470   77.263237   27.558136
H   48.876354   97.953041   49.993629
H   24.854298   61.394169   45.919727
H   17.960281   18.678553    9.941428
H   12.550864   64.411438   12.452604
H   69.653305   15.319127   95.593521
H   43.470390   25.894726   69.114563
H   76.010155   66.061577   83.914360
H   37.685047   33.940372   28.922064
H   56.247532   96.947189   77.982849
H   69.470695   19.860836   38.410812
H   29.077711   33.062931   73.033096
H   43.530254   54.969826   55.024303
H   12.520104   49.634865   64.084854
H   12.032318   22.890076   94.041847
H   73.165466    4.722167   38.523151
H   28.658775   71.830627    1.695963
H   93.756424   12.372486   87.452362
H    5.888742   85.160927   70.443886
H   14.741383   62.532066    9.639715
H    2.265797   45.191345   99.813919
H   48.990128   39.471336   59.281593
H   69.288956   71.500961    2.545367
H   93.516357   26.530563   88.476959
H   84.543221   96.787849   23.130341
H   53.477600   42.621323   23.013800
H   38.354927   48.704639    9.716290
H   92.007881   34.716785   55.173290
H   75.373253   53.616215   74.400742
H   69.866066   26.230556   73.469078
H   64.479820   38.864571   50.700176
H   33.465904   55.789917    1.411132
H   17.205954   85.062248   60.324406
H   61.432941   46.480965   67.751411
H   97.080612   10.788868   57.852100
H   26.845322   39.760983   94.174797
H   69.498947   28.859976   12.920430
H   29.251448   17.313948   85.701859
H   80.755920   13.369781   93.721863
H   39.121567   40.781513   22.834286
H   68.839928   53.055187   19.383308
H   92.071091    0.675478    7.826253
H   13.856499   30.853746   89.073547
H   52.728611   45.220230   74.070496
H   27.413586    9.794406   44.377045
H   60.627159   25.168430   49.546669
H   44.929352   39.376999   33.017479
H   47.798496   14.633899   52.339672
H   77.306450   92.301277   30.791134
H   58.402069   93.124672   94.158333
H   58.837593   85.709343   26.957359
H   52.896339    3.032962   29.645525
H   30.243044   81.638641   36.671703
H   89.533089    6.938398   36.420891
H   95.037025   32.185944   30.674181
H   61.920097   22.452124   37.067341
H   53.963840   36.114574   19.579937
H    6.476194   89.729240   59.597939
H   50.537132   76.403404   28.447273
H    7.423405   17.531860   53.603241
H    1.471245   37.505505   32.319477
H   48.681225   74.798882   83.046127
