100
TIME:    2.454, STEP:  2454
H   51.368073   96.977104   96.899307
H   33.007820   37.796715   32.797504
H   21.936850   50.454361   94.530312
H   81.888504   31.546305    5.650369
H   73.190796   69.456436   99.167526
H   89.964851   98.549492   21.773439
H   24.356693   27.043274   82.358849
H   27.006737    0.904906   82.875984
H   93.303932   50.351334   45.616871
H    7.779879   51.619164    3.784145
H   71.989929   64.984543    3.368143
H   62.180542   46.696915   18.250593
H   87.163353   13.237118   81.221062
H   33.573479   97.511940   43.991108
H   10.349632   50.825897   32.810341
H    2.853803   97.093170   29.338514
H   26.769501   44.283943   96.784302
H   53.585602   75.362556   14.469063
H   83.486534   81.301956   92.649445
H   26.403946   53.699368   83.412392
H   18.652786   11.913425   90.637726
H   97.647720   47.341705   10.297470
H   52.979591   74.663994   62.138565
H   91.038300   66.113586   24.818268
H   41.814201   91.549500   54.667786
H   35.406742   54.486034   59.157570
H   50.468140   40.467434   48.663334
H   25.480806   70.984138   47.888851
H   64.530624   71.738106   41.169762
H   95.091255   30.103745   78.474724
H   12.636548   42.109463   15.227364
H   20.704079   84.710564   72.084999
H   43.214268   88.936317   18.872656
H   81.788261   48.828262   68.367966
H   19.771935   73.416504   74.159142
H   85.919937   77.259575   12.204034
H   15.169881   14.665041    1.831016
H   62.560715   14.038891   95.614113
H   41.489395   27.947245    6.501669
H   32.054386   82.448189   31.109438
H   67.536064   40.385731    0.159744
H   11.069672   21.994263   18.092363
H   32.378574   78.215851   78.727928
H   22.654467   53.900948   20.673433
H   43.789066   35.068417   66.106422
H   46.427593    9.723072   93.134193
H   60.903522   58.294708   49.013908
H   56.370472   20.649561   20.417503
H   36.762222   29.209164   46.583809
H   77.353172   68.098793   12.029316
H   43.357395   32.726067   79.291428
H   24.392126   36.026112   12.960667
H   59.785385   36.237854   60.346497
H   19.865185   67.171089   40.104034
H   45.397873   73.636475   21.228956
H   96.636734    9.952913    9.086853
H   51.823711   18.738167   89.383186
H   43.326752   45.137802   50.346756
H   83.818581   42.456707   23.087961
H   97.080917   16.410101   93.812996
H   14.500643   64.447578   23.062962
H   11.816074    5.101633   84.318878
H   40.686138   39.809273   65.204269
H   11.550718   55.143646   60.517673
H   29.724884   64.848267   24.097086
H   50.592079   20.277290   91.284981
H   90.679146   33.204365   85.540970
H   10.851290   57.884216   83.517990
H   79.209770   73.457542    6.320981
H   80.101379   71.573311   96.565704
H   44.107460   28.429831   32.712811
H   71.622864   70.081573   36.291946
H   46.986572   96.922783   98.823723
H   76.186028   94.085190   57.360039
H   80.488182   32.135815   87.427475
H   83.672417   64.852531   30.806881
H   89.762238   13.850126   34.450199
H   47.273708   90.259605   49.966213
H   79.190277   46.310558   45.058701
H   79.176521   75.304932    9.506896
H   58.905041   54.669415   26.658257
H   25.449707   60.254044   81.575294
H   73.066605   48.217590   63.631260
H   18.982853   22.153536   39.284027
H   32.840637   95.384460    9.864623
H   94.810242   99.193123   12.196517
H   31.051840   24.927139   40.559570
H   95.459717    8.821278   70.225655
H    6.609504   57.537224    8.123022
H   49.372349    8.309723   11.943114
H   24.450439    5.941207   85.285721
H   59.861805   80.064751   80.281883
H   42.736973    1.164572    8.763111
H   84.416237   62.087429   92.279366
H   14.162449   29.915245   72.477226
H   96.611893   98.826180   40.696777
H   67.815384    8.510530   96.057518
H   15.875384   37.132019   16.770279
H   91.810692   47.428524   39.490044
H   91.642990   15.670321   61.330475
