100
TIME:    0.802, STEP:   802
H   63.086342   48.473793   98.411758
H   78.961128   48.228977   28.590086
H   93.543915   31.602604   13.923073
H   81.611221   99.606651   96.202385
H   87.987610   37.041359   43.959221
H   15.579926    0.340779   58.171055
H   10.938253   15.491827   53.170216
H   56.850677   57.984219   34.557159
H   33.913307    9.184389   49.604675
H   52.923164   27.899979   39.096123
H   25.654938   98.512924   62.495842
H   25.229916   63.890816   35.841301
H   92.247375   13.185411   45.416397
H   15.371290    2.604517   18.272236
H   90.256477   98.386871   12.220409
H   69.277435   41.588627   66.467270
H   59.586937   35.034531   46.375099
H   18.282471   55.699432   71.742477
H   57.752716   11.997027    5.616292
H   70.939980   88.717102   70.902092
H   16.684723   76.376129   35.476410
H   39.248890   45.158485   50.967342
H   75.036171   88.099602    9.403296
H   44.527054   46.300480   47.511841
H    0.900563   22.569874   42.479950
H   42.981602    3.713228   14.002000
H   92.921295    9.138154   15.880957
H   64.869499   93.873840   93.283035
H   28.609909   21.855654   19.261253
H   31.744787   70.990341   47.145016
H   47.650150   93.962257   45.948174
H   16.395758   30.353828   25.018898
H   26.849236    9.804388   70.047447
H   11.988460    0.224309   37.963615
H   60.836861   98.294960   73.563934
H   42.286102   47.486523   17.884764
H   56.720570   75.164894   71.659798
H   30.842651   44.275311   79.035927
H   14.664871   63.387657   65.259903
H   87.653908   37.102612    1.133350
H   80.433395   83.699654   61.238407
H   59.541985   47.852974   40.479359
H   18.148932   68.309296   59.401405
H   28.145815   26.211805   59.148201
H   87.087791    0.249426   24.737009
H   67.708611   78.280815   86.463341
H   44.548450   69.005508   34.476265
H   56.282246    3.640770   18.201109
H   88.473991   66.026535   12.481343
H   42.710293   42.956348   27.571983
H   43.483433   92.215294   61.873035
H   44.108086   89.319366   21.411751
H   25.515764   26.658997   56.292114
H   58.117596   94.117928   67.206619
H   76.913071   28.812094    7.211599
H   94.569717   11.689081   65.324829
H   47.094261   66.405586   32.264412
H   66.340027    1.148302   92.897049
H   53.528091   72.654877   49.913990
H    6.095810   89.431854   40.798790
H   10.291166   41.273979   51.864685
H   70.446594   20.480453   59.068626
H   28.631729   52.463356   78.537697
H   98.110725   46.157166    5.364340
H   64.157127   96.789299   70.250679
H   52.077156    2.403356   93.606361
H   23.222872   76.088593    5.782346
H   24.966316   63.404404    4.542838
H   96.872704   92.159729    9.931547
H   46.632332   88.481590    0.044281
H   96.564308   40.834339   52.528690
H    7.838947   24.908852   15.339872
H   54.700089   78.635689   41.184544
H   12.538600   98.626923   55.543358
H    0.840415   29.784849   62.194996
H   44.619717   58.974525   41.965038
H   39.771366   57.033806    5.225220
H   69.659744   98.279518   58.733021
H   99.993034   51.153172   26.631042
H   60.193954   65.277321   51.828125
H   26.576397   37.578716   27.921886
H    1.497338   49.465225   19.715206
H   68.540276   20.643160    6.286422
H    5.339345   80.789772   90.176247
H   13.278471   98.717438   70.007576
H   32.833736   38.513332   97.476433
H   20.718496   45.040993   61.785549
H   68.865784   41.083809   87.404030
H   72.326363   49.517784   21.638718
H   95.428848   76.284073   52.883648
H   56.843693   16.737886   50.398510
H   37.626835   55.823997   48.803780
H   36.741234   51.660355   80.959587
H   24.743921   61.881378   80.892876
H   42.726505   77.891663   34.514702
H   60.163498   64.060905   26.024788
H   98.943741   13.705380   91.065094
H    9.809825   23.066223   43.203995
H   70.506645   40.307400   77.871346
H   89.048355   58.104778   20.441908
