100
TIME:    2.666, STEP:  2666
H   37.031158   77.535576   96.705215
H   27.110664   49.291801   46.170429
H   25.580923   65.706741   92.042702
H   81.924088   22.811365   94.030212
H   71.291931   86.449173   93.419174
H   86.678230   98.319817   42.768925
H   13.245848   41.359161   98.937523
H   10.343956   19.245234   63.411762
H   88.092567   29.968460   32.271442
H    1.987047   54.663170   12.086322
H   52.270203   73.514877   82.946594
H   54.088531   57.323441    3.160706
H   73.677208    0.410503   60.149460
H   23.076347   96.858498   60.124989
H   12.928627   31.889013   22.619650
H   94.329712   78.550934   11.740049
H    9.723304   58.304611   16.084848
H   58.116028   65.053047    7.118645
H   86.789330   90.194595    3.818913
H   20.692795   49.198055   97.846352
H    6.072434   90.808319   84.882904
H   17.972366   47.623138   92.243774
H   50.149086   72.939812   56.073196
H   71.341217   68.656189    9.072749
H   34.231682   74.734680   56.231842
H   34.434666   48.169964   39.287422
H   32.186310   31.654081   52.870274
H    7.593012   80.879585   54.897182
H   69.140305   90.972603   31.148226
H    3.220271   24.856796   95.328362
H   20.978392   61.119999   98.453514
H   34.089943   78.852226   52.459084
H   58.148014   73.425148   37.971291
H   90.745598   29.399673   59.436508
H   14.501649   57.390991   87.069481
H    4.352361   93.912651   11.475381
H   35.503281    6.900560   18.535521
H   53.799088   10.158672   10.574396
H   32.540146   23.328669   85.957260
H   12.086386   62.602188   47.789967
H   53.048336   47.659321    5.155443
H   92.016258   31.509613   28.051699
H   34.204655   79.487152   94.041771
H    9.117373   57.454445   41.401260
H   25.400194   26.704678   84.247536
H   43.692516   13.766651   93.994667
H   62.561390   69.823761   51.050255
H   56.381794   22.832285   33.534874
H   42.958603   11.651943   38.126259
H   81.797874   71.323952   97.201935
H   43.341221   12.258307   81.526718
H   34.694569   16.353935   99.042870
H   64.183113   37.467102   48.032990
H   14.956280   63.712883   49.459259
H   28.519974   92.220764   23.027540
H   96.901993    9.730112    1.869873
H   65.263100   12.620816    9.546265
H   27.540619   25.116955   44.886307
H    0.539545   51.414043    6.812555
H   83.090134   32.705723   87.783211
H   27.874331   54.589260    6.534196
H    4.292591    3.127962   74.727509
H   55.066723   25.352297   50.660324
H   26.108412   56.296875   54.761234
H   38.140163   47.915455   43.840752
H   37.568520    9.738106    3.819954
H   73.670235   40.532948   95.776077
H   96.206764   70.008484   93.652817
H   89.774834   58.224571   93.025093
H   84.397278   82.235420   96.119293
H   37.375710   14.004823   30.169174
H   54.142578   63.045746   51.814438
H   33.164001   86.435356   93.389153
H   71.521355   80.670212   44.760246
H   90.710350   32.438274    3.498412
H   88.683220   78.438957   16.541943
H    9.010118   95.475479   38.199406
H   57.233852   76.398216   61.674801
H   89.357452   45.687847   47.425003
H   68.779671   63.759670   91.242996
H   63.053753   56.862652   39.328876
H   41.357147   61.638565   63.848244
H   86.478348   51.756531   83.823273
H   33.567234   40.294647   19.920135
H   22.517445   82.124756   89.313713
H   89.932068    6.980206   26.918484
H   45.210838    9.513016   50.668518
H   98.872498   91.848145   68.019478
H   11.009403   45.733208    6.388543
H   30.627995   99.586990   19.521374
H   33.126343   17.388542   89.762772
H   75.548080   96.006157   84.322227
H   56.339573    7.516668   25.164497
H    4.906176   74.946251    6.573771
H   10.496540   10.924980   77.348930
H   14.122298   90.454353   29.746765
H   50.987625   20.676601   83.865318
H   16.653433   38.937073   13.378029
H   81.711449   48.342373   21.732262
H    4.808914   10.224833   40.912018
