200
TIME:    0.398, STEP:   398
H   14.326232   61.950626   18.041279
H   29.372545   35.184784   96.311348
H   14.826089   76.053787   53.130547
H   23.168461   78.820503   40.368034
H   13.532617   87.733734   51.386841
H   84.478577   48.526627   60.872711
H    5.648360   55.192024   52.709576
H    6.429318   95.709198   19.464001
H   93.845055   85.137527   43.865009
H    5.299319   72.685692   89.840309
H   17.700853   97.969429   97.954620
H   31.431152   46.240089   20.270643
H   15.052089   92.251564   54.816032
H   96.935600   53.873547   49.879391
H   11.993596   73.160881   42.589836
H   24.694988   19.456364   50.914612
H   91.640182   15.118420    7.760902
H   32.810234   90.762543   40.707462
H   70.282364   23.981781   44.809738
H   90.558922   77.534874   31.345860
H   59.981239   84.645477   18.601780
H   86.511543   54.853645   64.485992
H   90.273842   61.392670   45.345085
H   11.954846   89.499687   91.090645
H   10.113976   19.058546   39.772488
H   18.530302   69.348206    1.738180
H    1.955428   61.967075   55.434555
H   98.136261   76.647270    1.147012
H   17.723248   51.727242   37.413185
H   85.909576   24.996962   93.160416
H   13.155210   58.050266   16.387985
H   29.052876   67.209457   97.493095
H   23.305656   12.385344   75.109070
H   91.197334   63.750298   41.051971
H   40.406193   83.272324   33.017262
H   27.900146   46.319481   81.288261
H   90.799347   71.018799   87.141090
H   25.099674   48.842373    8.063457
H   47.222641   40.742863   47.943695
H   88.567505   39.038754   57.524506
H   80.551323   97.843048    6.768642
H   21.203630   39.793724   35.146179
H   73.857010   84.152336   56.195179
H   36.929276   70.907753   24.399157
H   34.175407   81.115723   50.065666
H   38.836349    9.726576   44.406239
H   82.951599   18.471420   99.643456
H   86.269249   65.548195   41.967606
H   93.190765   22.756283   61.280247
H   56.463261   18.514524   99.027908
H   74.449661   68.496284   21.607052
H   15.098261   38.417461   66.938667
H   56.437408   89.900612    9.995263
H   20.055073   85.517960   84.042931
H   70.511093   72.871063   85.663475
H    3.280207   68.457680   83.821991
H    4.979572   17.343361   47.959736
H   69.134872   62.252384    2.451735
H   24.847204   77.529648   10.947894
H   39.448986   95.101967   64.073441
H   49.907806   12.293783   37.620255
H   92.775566   16.799173   50.277050
H   75.800171   28.479551   79.554443
H   27.954227   65.377754    7.195162
H   73.888245   78.434509   24.390482
H   32.541908   22.699549   35.703323
H   80.273293   19.829235   89.099464
H   96.456627   91.809151   90.399681
H   22.142569    7.988391   59.979973
H   44.327457   44.383823   50.974155
H   58.395851   79.324875   77.507629
H   27.699944   19.668776   43.658833
H   82.508438   28.394634   94.205063
H   13.012761    5.491752   65.172157
H   81.068924    3.429232   60.183563
H   57.307396   13.498477   61.845009
H   94.759766   35.832161   69.910683
H   20.703110    8.847033   42.564735
H   12.731785   36.732716   31.439053
H   65.895340   89.785767   86.768585
H   50.073986   27.431688   98.788086
H   33.583805   65.749016   82.972771
H   10.383279   15.399428   85.656837
H   19.521696   67.026131   99.001190
H   33.281807    0.994626   53.304573
H   29.118618   80.246155   24.493767
H   42.936600    3.113346    2.133548
H   74.017555   12.663799   17.401604
H   70.521622   72.441833   77.739868
H   22.652756   93.129143   53.127254
H   34.619507   36.256756   80.051712
H   82.954857   89.921722    1.815385
H   54.765392   15.080151   91.229904
H   52.942867   88.757210   73.443062
H   29.128483   54.788948   74.520302
H   62.728920   31.241852   21.632830
H   81.448875    8.814291    5.133883
H    2.551176   30.893898   50.089527
H   33.437737   68.195282   53.441177
H   69.951637    0.494907   27.288980
H   16.915556   84.794922   76.379799
H   96.447639   79.046967   64.993065
H   26.454588   31.395842   32.710819
H   29.468092   68.231201   96.436707
H   25.129293   25.396355   30.210072
H   93.678154   19.037245   36.493561
H   73.142906   32.058643   55.523911
H   63.820477   40.340775   12.632029
H   76.811897   38.095245    6.772694
H    9.442256   25.857439    6.310557
H   49.273331   94.693779    0.907015
H   92.338211   67.318542   92.310890
H   54.349846   82.108139   90.498650
H   62.688957   15.991062   70.879578
H   58.577644   88.547882   21.232738
H    7.590421    1.175055   86.062180
H   26.078800   10.667508   86.022018
H   39.969494   34.773403   30.820244
H   24.862741   63.645603   75.730789
H   74.952263   49.828304   55.236778
H   42.203621   22.809376   82.342445
H   11.471706   23.737125   52.835754
H   36.045601   15.158852   28.716219
H    1.749413   61.632996   10.946144
H   72.188622    5.040071   87.587532
H   53.510891   66.675385   22.480707
H   91.459297   49.927658   64.952805
H   71.972664   88.809166   36.337002
H   94.412102   46.764439   81.289604
H   75.403381   23.400463   69.193367
H   54.986961   79.544220    9.449413
H   75.635414   87.618454   13.053014
H   91.921822   90.281853   98.550461
H   93.173172   17.054035   51.652065
H   12.231452   98.513245   49.156494
H   58.149872    1.424072   81.353889
H   69.154297   86.967140   63.204185
H   92.566032   59.287670   80.701897
H   50.443085   46.543213   71.512718
H   43.533531    1.512054   91.067261
H   58.439785   58.422279   20.013763
H   49.964645   45.811508   49.930126
H   49.926361   59.669125   94.054977
H   50.473183   20.808317   80.742653
H   47.728680   64.527008   54.235081
H   51.729279   64.698074   22.278992
H   48.468132   96.085869   46.150585
H   38.338158   67.537331   67.918480
H   69.409149   58.195557   96.373764
H   14.498478   90.399788   84.084229
H   70.651070   63.993267   50.151409
H   40.438408    2.737921   43.200966
H   83.515701   25.930706   97.917999
H   14.086605    4.769400   72.048088
H   19.877834   58.051685   63.611923
H   68.192482   43.920673   58.921913
H   60.965130   65.621796   82.626633
H   48.292412   34.124847   13.425751
H    5.150464    1.138993   96.745445
H   61.908276   50.497101   84.304459
H   55.507957   77.990395   79.214912
H   36.185802   22.237503   34.175194
H   72.020470   27.681244   37.166355
H   17.074251   24.821224   64.438660
H   57.441353   27.449575   11.377007
H   14.635890   59.411991   61.438122
H   72.179146   95.011421   53.896664
H   23.770237   38.121231   54.546223
H   96.219856   27.656389   36.483849
H   33.683319    9.267379   88.624115
H   76.346558    7.512805   35.962814
H   40.704689   59.578552   57.943306
H   40.725731   70.665176   85.978348
H   69.280350   70.758583   77.905029
H   64.094299   93.847977   91.802269
H    5.785531   48.514305   23.438330
H   33.794613   57.856842   93.517418
H    3.130314    9.351540   66.900528
H   71.560921   17.706575   67.286896
H   78.784584   56.149956   88.613869
H   78.533188   90.851387   38.045708
H   22.414560   30.298916   75.384216
H   58.361027   90.001816    9.197149
H   54.921577   25.512806   83.002937
H   87.566193   81.481430   77.745895
H    2.568108   37.556992   84.744972
H   36.853638    1.818149    2.766026
H   82.830368   73.917183   31.055016
H    2.042812   61.877987   68.349167
H   52.486748   57.413830   67.699234
H   55.368160   25.796936   78.173164
H   46.357666   89.222992   22.611898
H    7.610047   21.282902   61.425560
H   32.343098   69.836807   36.497463
H   79.472519   47.198063   21.299450
H   75.713882   10.771147   27.401695
H   10.511523   89.867668    8.799664
H   24.317652   94.265999   42.510788
H    9.806344   12.053991   70.950752
H    6.359818   29.639832   95.553680
