100
TIME:    9.711, STEP:  9711
H   60.606598   31.476440   90.255325
H   32.281235   31.088970   90.414482
H   46.694027   72.552254    9.347372
H   83.106567   32.558281    7.868900
H    8.180365   51.136459    2.401569
H   77.430542   90.687447   40.458717
H   44.016132   17.070871   49.866024
H   56.620850   28.726894   16.561447
H   14.912956   52.618927   88.814613
H    9.515360   55.820576   87.945656
H   96.961395   56.984207    4.334564
H   85.199272   10.452692    1.689949
H   24.511536   74.194069   60.054504
H   74.251007   75.143867   96.250694
H   98.555794    2.598434   83.897972
H   11.064251   62.369370   26.943188
H   43.206215   24.278252   57.418991
H    8.731132   22.301460   62.893387
H   96.520981   85.741440   74.978394
H   30.884396   99.589813   77.502647
H   88.011719   89.457161   93.669571
H   93.383377   56.975479   92.296951
H   56.086357   15.650879   54.507721
H   16.765591   52.999969   85.851135
H   82.263779   16.029198    8.253841
H    1.816584   39.823227   77.034019
H   24.688229   38.802151   92.645615
H   13.156004    9.716359   87.766167
H   22.327648   30.149588   98.128586
H   73.356056   50.492325   55.385078
H   98.243523   92.860168   41.075684
H   78.915848   84.206741    0.268195
H   54.388161   57.979294   72.640526
H   88.414551   83.767540   62.642326
H   39.275902   24.410988   15.877452
H   16.797972   46.041508   88.897194
H   11.210599   48.897713   73.654190
H   62.616169   81.239403    7.720271
H   35.167721   69.830956    3.244751
H   48.525425    3.070912    2.075493
H   71.573486   89.390976   71.131432
H   81.823463   79.686935   75.719231
H   94.860016   21.742912    2.909096
H   59.271687   75.648048   30.223316
H   14.288824   48.743473   87.104660
H   52.778236   48.133282   22.613359
H   17.614399   52.958836   18.687456
H   56.780331   95.390152   69.438828
H   48.890633   28.185345   57.099968
H   29.616903   78.548363    4.539262
H   45.354282   32.298759   51.927582
H   77.083496   62.631325   36.569557
H   10.298233   78.316406   38.872765
H   51.804100   48.762283   60.335701
H   67.590584    9.630063   82.933609
H    5.690798    2.318694   62.041428
H   11.887968    9.339579   79.584312
H    2.955195   59.803032   63.422142
H   56.166348   49.095970   65.972816
H   18.193615   74.208542   87.406654
H   72.281708   26.965136   57.256519
H   54.255547   37.553452   55.964836
H   33.350620   44.638306   67.565598
H    9.876501   94.662918   63.489326
H   17.768436   85.241463   99.911339
H    4.787928   59.511009   20.374964
H    8.436485   84.096100   35.909924
H    9.560613   72.919746   30.444565
H   40.897522   52.015808   51.176754
H   27.250336   36.402378   81.246750
H   13.656021   34.660519   45.666542
H   73.589195   29.157616   67.856964
H   73.816940   37.964245   12.757877
H   16.434315   34.811237   26.158587
H   30.258707   42.614178   37.596058
H   55.234268   29.956394   42.501999
H   48.748970   85.288498   62.972389
H   88.212471   15.750679   50.753258
H   27.191404   24.994450   26.032595
H   23.288757   80.014809   84.309975
H    0.924561   29.747110   60.396675
H   70.000511    7.455235   74.580864
H   32.115189   69.520546   54.770336
H   18.250790   43.150833   76.467155
H   79.486816   41.438225    6.381755
H   27.791935   65.757484   16.144718
H   15.730654   97.283028   86.601067
H   12.207577   27.993559   94.893875
H   57.215824   53.479103   48.767342
H    7.755610    9.738121   71.359634
H   21.437460   97.796722   38.540672
H   96.814560   25.839239   18.560389
H    7.947371   18.892591   69.971123
H   83.273964    2.136385   85.467094
H   88.692566   79.877632   39.233192
H   96.010345   12.255756   65.863113
H   91.789116   24.972359   78.699402
H   19.532831   66.959183   83.926781
H   46.103294   78.736641   31.639606
H   42.398483   29.435513   62.249447
