100
TIME:    4.539, STEP:  4539
H   10.368561    5.771949   94.990433
H   75.119423   50.826561   64.305725
H   57.775970    0.458391   70.064903
H   82.238464   45.644035   91.364754
H   54.515640   36.578369   42.633026
H   57.638111   96.290657   28.258280
H   15.081768   67.833832   45.408718
H   63.129845   81.282898   91.437706
H   42.050652   49.887085   14.372683
H   50.801064   81.556679   85.431976
H   78.048309   48.878971    2.530407
H   82.599892   51.207191   69.838127
H   54.424118   87.107475   74.004150
H   30.335922   91.085396    2.659031
H   35.712639   64.585602   32.586269
H   19.020939   14.731653   56.264587
H   59.107765   82.190063   86.591423
H   98.132164   73.964394   42.181103
H   15.964840   68.771683    2.495682
H   70.226891    9.425329   25.368814
H   94.926033    4.344888   34.048019
H   97.538696   50.109573   32.740479
H   25.141838   57.706825    2.483201
H   97.319183   91.119843   69.968262
H   67.243439   26.194054   70.061378
H   25.854998   92.470779   63.590359
H   70.676643   53.797581   90.028175
H   49.553738   68.304886   16.805895
H    9.867175   60.905514   42.610664
H   75.038849   78.499290   44.225746
H   94.692741   29.076729   50.267708
H   52.352398   27.104561   79.066093
H   90.078224   36.387001    6.705922
H   69.884995   57.750458   80.530678
H   67.943939   15.806688    1.122974
H   67.205170   40.942905    5.157629
H   15.148508   38.308578   66.120773
H   76.385857   75.887749   42.745640
H   53.481464   82.520927    4.449758
H   35.670547   87.257301   95.153198
H   25.042931   11.928990   49.282574
H   23.681686   15.570224   16.047533
H   50.337902   90.718979   29.330923
H   89.513519   88.837952   24.534449
H   62.929974   52.804138   44.525410
H   19.528370   49.491291    1.599371
H   77.195602   71.683983   69.037178
H   56.481823   42.120193   49.425514
H   97.711838   56.528797   63.413826
H   21.074055   99.817924   66.199440
H   43.198322   31.432739    1.275072
H   25.718931   42.554157   76.085602
H    3.023841   48.327393   39.251118
H   71.577202   33.146881   32.109032
H   79.392853   56.375668   38.953564
H   99.245529    7.759135   38.108536
H   84.004578   58.575813   87.684044
H   88.072403   48.235298   96.640121
H   48.257301   30.553474   63.022812
H   59.490345   76.671188   34.510628
H   46.024567   67.485863   60.498581
H   37.816643   85.693710   89.978409
H   82.213524   97.549484   22.217613
H   54.725388   66.489029    3.903637
H   12.482343   98.321228   18.266439
H   22.506996   16.625526   14.564441
H   23.396242    5.288663   86.204697
H   66.825966   77.127274   83.193047
H   83.125473   23.642731   75.555145
H   22.346838   76.441895   92.175293
H   77.898445   86.566116    7.698400
H   99.706390    0.884201   88.946190
H   11.039881   93.789803   45.369690
H   30.288097   62.144009   33.461479
H   81.014168   35.110477   45.485317
H   32.962784   98.479576   90.512527
H   79.067154   33.135754   71.323296
H   45.230801   53.927280   65.113487
H   79.173820   40.186253   68.328102
H   76.924011   61.751644   29.882225
H   99.693314   76.239700   51.274044
H   81.892021   73.870682    7.228849
H    4.975389   83.027405   62.216305
H   62.424629    0.570760   48.848846
H   31.318274   64.969170    7.747264
H   46.828167   75.780815   56.985168
H   70.304268   73.330643   39.980637
H   29.017218   41.890800   48.539459
H   49.881210   41.447517   91.067635
H   65.031021   22.528397   86.475479
H    9.777305   18.525173   29.317179
H   14.137635   36.856438   20.015295
H   76.412254   63.711159   70.012375
H   85.939346   88.556732   32.860416
H   78.113823   43.154068   20.387917
H   68.824371   16.491558   33.003853
H    2.318236   28.164364   76.146790
H   23.526854   54.884552   83.402672
H   92.485748   56.416142   64.849220
H   21.146204   62.152447   60.484829
