100
TIME:    4.277, STEP:  4277
H   28.085823   29.798553   95.230301
H   82.355446   36.628365   47.784843
H   53.272446   81.608772   73.139214
H   82.194489   56.438103    5.725392
H   56.862350   15.577914   49.737122
H   61.701878   96.574501    2.311277
H   28.813187   50.141987   24.919977
H   83.722527   58.615833   15.493454
H   48.491112   75.077240   30.864668
H   57.961128   77.794746   75.173615
H    2.418908   38.336765   27.767529
H   92.598396   38.074409   88.487877
H   71.142929    2.950947    0.037846
H   43.308662   91.892952   82.721741
H   32.526390   87.988739   45.181347
H   29.556149   37.647087   78.012634
H   80.176186   64.859589   62.740532
H   92.532799   86.710030   51.264957
H   11.884083   57.780594   88.691605
H   77.287010   14.989271    7.530625
H   10.473465   30.428516   41.158112
H   72.420502   49.761765   55.052216
H   28.639915   59.837654    9.979581
H   21.661888   87.977570   89.425568
H   76.614288   46.972633   68.126442
H   27.049341    0.214579   88.228783
H   93.268227   64.689468   84.831032
H   71.660278   56.075607    8.145108
H    4.169806   37.134579   54.995857
H   64.992371   84.983727   23.397606
H   84.382408    5.582863   70.996315
H   35.809490   34.342583    3.320747
H   71.624367   55.556465   83.102890
H   58.815079   81.761261   91.568611
H   74.456360   35.611809   85.167877
H   44.429691   20.422184    5.981926
H   90.018997   47.903305   45.476124
H   87.215904   80.681114   24.257801
H   64.541290   88.229790   29.838839
H   60.346985   11.784535   74.540527
H   42.948700    2.939805   43.109966
H   47.228745    3.811092    3.738884
H   48.081142   89.147842   10.406471
H    6.244021   84.448364   98.917480
H   85.657387   63.140457   22.105291
H   22.908512   44.494038    0.534283
H   75.148727   57.435814   66.522560
H   56.467831   39.421677   33.214424
H   90.052048   78.228180   73.864197
H   15.579074   95.832115   84.525368
H   43.218311   56.726860   98.512817
H   12.986929   66.866562   93.284149
H   97.589928   46.808228   54.468754
H   77.645866   37.422531   20.548378
H    0.253387   33.414288   36.724789
H   98.917709    8.034765   47.027634
H   67.393707   66.135658   62.765739
H    7.581508   72.977699    3.388729
H   27.594656   19.482559   83.135857
H   76.780319   56.533512   41.962532
H   29.497499   79.671165   80.927010
H   47.115532   88.132370    1.832155
H   64.427299   15.428098   40.183739
H   36.733276   65.061813   11.017727
H    2.082916   19.246738   93.867104
H   38.602150   29.650368   99.073425
H   44.417099   96.230377   73.555649
H   84.924019   62.143509   70.667931
H   70.068649   42.468384   91.986115
H   17.038755   63.265022   92.726990
H   86.217873    4.392447   10.841648
H   21.309227    9.579724   69.764732
H   28.123491    6.749638   52.087997
H   36.056927   78.723122   49.028923
H   68.381111   34.736683   25.623911
H   26.768190   81.688805    8.142229
H   55.279495   55.845272   66.689842
H   32.921566   71.059044   50.643593
H   66.608727   40.955830   65.405708
H   89.772949   76.020119   52.453819
H   94.568130   73.529190   35.614651
H   62.234642   72.159622   29.137808
H   88.402199   78.649139   37.263165
H   44.400536   78.151070   72.778427
H   44.075317   81.356163   33.145142
H   52.858852   66.158104   38.791168
H   52.805885   92.380173   27.487501
H   24.800535   62.867271   51.263962
H   44.444199   56.035500   93.210457
H   88.194290   33.308472   77.108627
H   99.055023    4.378013   23.784220
H   94.751114   17.153267   15.023039
H   59.617485   55.849480   49.751507
H   60.616993   72.665466   15.195173
H   82.643333   66.622948   14.368089
H   47.184265   26.836872   46.536415
H   23.114136   13.128724   91.214508
H   22.565382   52.653778   87.596367
H    4.966789   55.286762   86.793159
H    4.872855   68.876198   85.723236
