100
TIME:    0.092, STEP:    92
H   11.101056   13.584371   99.061783
H   98.711037    9.732849   83.803864
H   81.345123   80.522789   22.259636
H   81.492050   28.860418   35.120293
H   94.347015   80.131729   63.210777
H   26.589714    1.113521   87.856529
H   48.148083   67.551109   97.647003
H   12.655279   96.561737   99.746223
H   51.366463   77.447922   94.295601
H   72.326393   17.708138   11.291330
H   91.697418   69.944351   30.887886
H   52.330517   28.301979   86.380699
H   37.410301   56.141281   15.985093
H   50.526752    4.793610   64.242561
H   81.621986   61.803398   46.350689
H   97.823395    3.690781   25.403210
H   16.669428   88.081215   81.731194
H    3.110770   90.226562   96.356735
H   46.696884   82.213074   68.208130
H   90.159035    3.603319   22.464441
H   58.817139   47.058998   54.744217
H   71.169350   44.221367   11.421644
H   84.515694   93.873985   29.718826
H   10.493778   37.785160    0.241370
H   26.292307   78.876808   37.237625
H   46.232655   24.872643   80.547478
H   54.146152   38.652897    1.791975
H   24.777931   60.733425   69.817154
H   13.171580   57.438839   52.823151
H    4.521736   88.562668   90.702690
H   19.720766   30.292368    2.131928
H   71.566315   49.968315   90.747200
H   76.838806   61.751015    6.085042
H   81.989296   65.291443   67.875572
H   78.485023   51.965714   30.330696
H   80.554070   91.712883   20.327772
H   88.623940    1.165017   15.713867
H   60.185837   57.270382   28.933664
H   46.585072   78.544060   33.309021
H   54.527447    3.570017   45.272713
H   28.954487   59.335606   44.505695
H   23.352737   15.985529    7.122634
H   12.034163   64.051636    8.118841
H   73.484787   14.313649   89.726822
H   48.674706   28.262051   63.980286
H   76.776451   64.933647   83.679070
H   37.051502   30.703526   28.409369
H   56.244328   96.329208   74.270386
H   67.716545   24.829861   40.804459
H   27.819319   32.149693   77.229874
H   43.533001   60.762825   54.394878
H    9.604379   55.202644   68.023453
H   10.787773   22.542175   97.526344
H   74.554321    5.701209   35.875446
H   33.435539   66.570923    1.186844
H   93.681351   12.435658   89.494904
H    2.085070   86.892189   64.737404
H   19.209352   68.198265   11.185240
H   97.533638   42.656250    4.420161
H   52.951157   34.859367   60.984932
H   65.504166   74.291489    7.223369
H   95.645874   27.089035   91.191498
H   80.473701    0.879383   27.246552
H   49.357269   42.294937   24.642981
H   35.973183   53.496967    4.128598
H   95.693794   37.699574   51.625622
H   80.187096   51.542088   71.504013
H   74.010658   22.798931   70.600731
H   61.489326   43.175789   54.463451
H   32.250542   52.771881    1.537303
H   19.111395   89.144585   61.044010
H   66.380211   48.472237   63.358646
H    0.992705   13.756550   59.390644
H   28.165970   43.558132   97.740776
H   66.605881   28.774603    8.371976
H   27.832838   13.468504   89.739334
H   75.308533   18.570206   92.659851
H   36.302658   44.704548   19.520763
H   65.964256   53.230511   18.714287
H   95.013596    3.943247   12.995209
H   12.682449   30.232790   85.487427
H   48.226963   44.828384   79.087585
H   23.617123    8.792933   38.662323
H   56.499504   20.034153   55.027016
H   47.851257   43.130661   38.833824
H   49.180943   12.428622   48.173565
H   73.299187   96.663765   27.930111
H   57.436188   97.928444   94.781807
H   57.592476   89.050102   27.448311
H   58.200905    5.501727   27.500673
H   27.787600   78.398590   35.404613
H   85.093697    2.425992   35.277855
H   91.187233   30.388102   26.032228
H   56.120689   18.812674   33.022083
H   55.001133   41.489178   18.201382
H    1.520387   92.098625   62.696999
H   55.299706   72.960106   31.897896
H    7.203163   17.020996   54.563171
H    4.329407   37.246868   37.345264
H   44.955029   76.339714   88.824936
