100
TIME:    0.998, STEP:   998
H   49.831459   30.499550   98.232315
H   73.509041   58.856510   40.953732
H   96.911469   45.703838   11.621712
H   81.644119   91.531700   85.459709
H   86.232056   52.751625   38.644707
H   12.540604    0.127468   77.581291
H    0.666114   28.727255   68.497673
H   41.445465   74.941086   16.560486
H   29.095253   90.339676   37.266449
H   47.566780   30.713501   46.771812
H    7.423492    6.399270   43.616905
H   17.748623   73.715340   21.890123
H   79.779053    1.326841   25.936090
H    5.666769    2.000204   33.188465
H   92.640083   80.879181    2.798523
H   61.396881   24.444309   50.197739
H   43.828819   47.996323   64.220741
H   22.470978   46.167999   64.947556
H   60.804749   20.220018   15.941805
H   65.634438   84.607849   84.273613
H    5.053850   56.864105   30.157150
H   58.042591   45.417183   34.277615
H   72.419289   86.505547    3.795317
H   26.316544   48.651188   32.954498
H   93.890373    7.025593   43.925964
H   42.082890   97.873001   95.630783
H   76.020721    0.990436   19.770391
H   48.332222    3.022532   99.760941
H   32.871689   39.638065    9.996742
H   39.260448   66.139389   62.726681
H   55.360233   11.539137   30.438362
H   28.771368   24.939125    6.874196
H   40.655628   95.464287   87.704674
H   20.269951   82.262032   29.706438
H   55.964973   83.478920   85.499908
H   59.327240   62.882763   17.210356
H   75.519676   67.987160   87.103889
H   22.742279   40.687939   92.868019
H    5.853127   59.203636   46.473778
H   69.192177   18.753572   16.554266
H   67.037949   90.425789   65.856979
H   41.926628   56.650185   49.687794
H   19.837194   69.484650   73.558998
H   15.630388   29.496367   78.312752
H   70.085533   92.515457   41.510155
H   65.205376   81.965385   87.231956
H   46.618031   79.577713   36.151070
H   56.292713    5.658777   30.328489
H   94.204216   49.794205    4.662473
H   46.821041   45.939594   13.864006
H   43.468479   73.292992   63.939625
H   53.633537   71.132782    8.544167
H   29.581652   27.795471   44.907928
H   53.579174   90.920845   75.855789
H   61.310211   45.995152    8.874815
H   94.814957   11.483095   58.652527
H   59.519218   60.750130   50.905586
H   51.745300   82.638725   87.848709
H   68.986122   80.936188   34.866169
H   93.161530    4.496565   35.224083
H   22.655390   32.159752   36.583588
H   63.490173   18.656113   50.199638
H   41.926796   39.097816   65.091408
H   11.569708   47.223358    0.042352
H   71.935997   81.135857   88.503059
H   40.036507   92.659615    5.195247
H    7.496904   82.865570   15.245697
H   11.427188   74.613632   13.912772
H    6.641263   78.076416   97.638741
H   50.602516   98.339012   99.631622
H   90.340614   27.497465   50.177982
H   91.677628   18.404030   29.690107
H   41.920731   68.939766   36.158634
H    8.224856   86.224396   43.894493
H   10.290112   30.063734   77.052910
H   49.253841   71.536156   28.777264
H   57.567661   40.046501    8.693336
H   78.868179   85.464272   69.557175
H    9.388231   50.578953   28.816513
H   50.581772   54.602112   34.942505
H   30.411999   39.606426   39.636288
H   16.203484   50.745255    3.325008
H   80.942802   23.914263   24.954319
H   18.822760   97.561745   72.273781
H    3.734620   86.458466   51.007515
H   28.322231   45.713497   11.087488
H   33.808891   30.790199   71.131561
H   72.020996   25.391804   85.367348
H   76.393745   38.604637   20.034943
H   78.100601   68.218094   59.890911
H   64.864815   27.321306   54.537670
H   52.128849   70.565269   52.537697
H   49.317223   57.532639   96.122551
H   43.688652   73.769768   94.108879
H   39.338017   60.335808   39.018730
H   76.352280   56.320915   15.901188
H   83.386002   24.953413   79.793060
H   10.529468   24.735046   40.068222
H   61.169609   41.152279   61.452511
H    1.220605   53.069897    1.563953
