100
TIME:    8.670, STEP:  8670
H   31.004932   26.940786   91.208389
H   61.031998   74.679520   24.775833
H   28.800249   97.658981   21.567528
H   82.931839   75.446159   64.932076
H   17.508478   67.695984   30.625134
H   93.569092   91.815239   37.365013
H   98.576134   46.778564   68.458458
H   38.441391   38.666828   12.142583
H   40.502724   52.707550   54.342503
H   37.951576   40.873356   47.186287
H   93.792755   15.098605    4.611573
H   24.931137   58.272869   75.789131
H   90.892441   37.203285   63.505577
H   25.794508   78.352516   17.030483
H   85.911812   95.585701   33.960365
H   52.921631   53.419090   13.354946
H   26.917305   55.422794   62.652657
H   86.464554   72.956810   98.982498
H   80.303009   42.071239   20.131504
H   58.928303   21.696981    6.626478
H   49.786629   93.090973   21.925932
H   93.581688   55.593536   80.947708
H   69.985207   24.113375   84.290970
H   13.489531   40.546600   63.165668
H   19.495544   98.585037    0.569587
H    6.727070   70.511887   74.997070
H   14.454779   82.075882   71.995895
H    0.992849   61.125996   53.358101
H   99.691246   35.701900   47.336021
H   33.438560   76.256821   72.628815
H   57.276356   99.511909   23.436272
H   13.186293   12.970428   96.638771
H   81.060318   34.143410   78.859024
H   44.430649   79.168976    6.498674
H   65.183357    3.229357   52.543331
H   26.305536   64.503937   92.169380
H   11.365155   87.020271   91.627525
H    5.646002    0.284894   34.258865
H   79.109184   92.513878    4.125298
H   46.576073    0.526436   20.171755
H   42.718033   53.669258   46.605923
H   69.553497   75.602570   22.580124
H   85.901215   15.496532   27.716412
H   25.735569   58.172562   28.441196
H    4.597923   89.823814   98.026054
H   66.209801   28.278526   18.384138
H    9.475236   96.341621    8.690746
H   56.716793   84.668182    5.027929
H   18.464066   14.401306   98.623108
H    7.767164   62.696384   77.326836
H   42.906269   32.611366   44.823151
H   26.491247   59.228092    4.904434
H   88.708565   72.280334   99.331985
H   75.912598   65.749832   14.399539
H   50.476814   18.401960   74.085999
H    4.394234    3.413725   97.479523
H   45.891571   39.377419   80.576546
H   80.469910   58.112801   90.235008
H   74.061363    5.106488   45.890198
H   86.888344   94.192551   17.015160
H    6.610481   75.375122   38.414349
H   91.202660   47.242935    3.063803
H   62.668278   15.657575   38.942535
H   38.393154   88.992188   91.747818
H   76.451370   68.386444    2.967873
H   68.737129   11.261954   58.822422
H   91.957779   48.105556   85.649277
H   81.469467   13.383779   80.678741
H   89.013306   26.815422   16.464737
H    6.108110   84.115860   83.454681
H   46.717335    5.492760   58.151680
H   59.312935   63.722069   91.553635
H   41.691330   89.457451   39.451611
H   39.347561    0.696158   88.012062
H   80.114044   41.081333   58.666859
H   30.621393   63.240013   12.548783
H   54.203934   75.390381   44.506775
H   39.308414   83.815331   93.258606
H   77.270546   28.052197   14.413427
H   74.340538   36.723930   73.993004
H   80.544960   18.977488   98.177002
H   91.886215    0.697416   61.670784
H   66.272301   52.111240   55.630825
H   46.630974   54.070045   71.546074
H   30.173935    6.560881    7.294373
H   51.753551   27.516624   43.854401
H   46.204548   72.972527   36.962318
H   95.466484   11.291834    5.683435
H   35.613041   11.440851   57.281380
H   99.793808   52.570404   34.148857
H   78.834801   41.585003   16.556664
H   19.791101   47.546021   98.727898
H   41.217136   87.659111   89.468994
H   85.187241   39.171741   11.403299
H    6.690723   73.124435   15.314001
H   10.028090   53.362854   19.632393
H   74.418602   65.232262   38.569298
H   21.542208   15.452291    4.829729
H   95.694389   74.241356   18.833721
H   77.737808   56.145512   62.532459
