100
TIME:    6.144, STEP:  6144
H    1.829115   58.586052   93.521011
H   30.792046   37.798565   65.505775
H   85.373840   15.927951   51.223515
H   82.507858   79.517120    3.388512
H   40.139801   65.226120   99.117096
H   32.743664   94.551842   87.207298
H   30.963634   76.210548   70.921883
H   36.980011   20.136379   44.072582
H    2.596660   95.572739   13.343564
H    6.945757    4.602442   48.280186
H   28.755112   13.459553   47.927994
H   21.340981   31.657413   55.592247
H   52.005478   90.050163   14.522881
H   50.866463   86.138344   24.801037
H   55.231026   21.220459   55.436703
H   54.487183   74.352272   23.035446
H   30.043282   88.348824   32.700905
H   32.453571   95.872192   86.542519
H   40.961178   36.102058   87.052063
H   26.987404   75.336464   34.644676
H   99.683060   44.563145   90.484764
H   51.411606   52.240234   96.059952
H    3.711317   44.653465   56.563614
H   48.192142   10.328341   50.767086
H    9.840079   98.908981   81.914711
H   18.538504   45.028061   12.663597
H   32.274567   87.078323   21.872892
H   14.129212   43.220848   69.862900
H   44.766472    6.523987   66.741974
H   36.580677   38.775932   71.819046
H   57.862221   72.999290   23.285210
H   53.693119   82.759186   30.483177
H    3.131590   18.957994   51.296997
H   37.700966   10.661756   12.914534
H   28.048542   94.479836   98.854431
H    6.725279   66.653175    0.109436
H   69.087776   79.528442   92.588600
H   10.050713   46.516521   56.005512
H   85.732056   47.548698   48.912849
H   84.497101   37.002522   21.431181
H   15.352844   66.996223   87.095680
H   82.431061   65.696838   93.622002
H   64.162567    0.343814   45.261337
H   87.028641   15.769674   81.463341
H   23.709606   89.481552   81.868759
H   98.817772   80.104233    8.121878
H   89.734665   58.969742   84.441612
H   56.567539   58.651184   48.733814
H   44.623962   23.604004   99.386246
H   54.736523   24.247099   53.944115
H   43.079716   76.479828   18.194450
H    3.719934   93.622009   70.720741
H   36.317493   57.633728   46.035381
H   34.410591    6.955503    2.934901
H   51.600731   97.035294   52.606937
H    1.248104    6.070831   83.470535
H   85.754784   12.264302   40.333046
H   68.560699   96.662209   55.300400
H   74.840424   98.367577   39.807274
H   53.577179    0.035385   88.860619
H   47.269154   92.847794   35.361195
H   80.855354   70.754593   17.356636
H   91.176537   88.027260   12.157928
H   64.938461   75.232086   60.333164
H   76.189789   70.134018   67.732964
H   23.910652   36.836540    9.464860
H   94.623459   60.773998   63.694595
H   55.957680   68.919167   59.921329
H   63.120144    8.317665   74.892456
H   54.859604   57.168816   88.795624
H   26.933403   77.363174   88.447029
H   67.365250   47.617645    6.456309
H    6.390553   14.399719    4.213646
H   94.957573   60.564098   38.097374
H   58.396511   37.400326   67.154922
H   70.908363    1.344997   82.515869
H   24.789982   94.024757   99.707619
H   20.636623   48.979836   53.751060
H   56.138599   35.471859   86.230553
H   98.218002   74.326759   91.610161
H   31.100885   92.844162   47.201206
H    2.337219   84.315491   72.995354
H    6.495675    9.868045   15.066486
H   72.846153   37.914818    2.258312
H   53.167595   64.575844   52.160461
H    9.884464   34.732994   68.441193
H   77.498589   56.633934   16.513128
H   54.841423   13.424223   31.874069
H   83.188095   52.083885   77.940804
H   23.126280   56.496822   43.849792
H   75.460442    5.190648   63.211834
H   32.892681   57.566727   50.592186
H   79.295776   11.868939   94.129532
H   41.061146   85.922554   41.079437
H   50.366249   99.386703   57.268467
H    1.390776   53.111481   50.103409
H   74.920616   20.271776   83.842102
H   26.417986   90.463913   55.539131
H   16.026855   63.334667   30.412781
H   20.839090   20.970272    5.868943
