100
TIME:    4.401, STEP:  4401
H   19.700554   18.427094   95.116776
H   78.930763   43.348122   55.603905
H   55.403885   90.529976   71.684196
H   82.215302   51.329460   98.928474
H   55.751694   25.517061   46.374878
H   59.778568   96.440163   14.591650
H   22.314331   58.515430   34.616940
H   73.976372   69.343506    4.108040
H   45.442955   63.155182   23.059324
H   54.572395   79.575203   80.028717
H   90.884735   43.326206   15.823238
H   87.866280   44.289925   79.661278
H   63.230209   95.452415   87.716553
H   37.168831   91.510750   92.157593
H   34.034386   76.912445   39.220318
H   24.570019   26.801628   67.719666
H   70.204872   73.061798   74.028740
H   95.182060   80.679512   46.965282
H   13.815434   62.982895   95.224991
H   73.945580   12.355955   15.973124
H    3.115135   18.083576   37.793030
H   84.308502   49.926376   44.492462
H   26.984337   58.829170    6.431676
H   10.140953   89.464752   80.216766
H   72.179230   37.138496   69.042213
H   26.484079   96.549545   76.567833
H   82.576027   59.534595   87.290749
H   61.197277   61.863510   12.244084
H    6.866271   48.384945   49.134163
H   69.747192   81.914757   33.254982
H   89.262108   16.701981   61.185829
H   43.638958   30.916954   91.841454
H   80.358253   46.483894   94.273788
H   64.054276   70.397369   86.344551
H   71.374146   26.238396   92.719208
H   55.208927   30.134281    5.591801
H    1.912583   43.362289   55.246876
H   82.090233   78.412498   33.007771
H   59.306919   85.527885   17.822649
H   48.668060    0.175858   84.296143
H   34.474030    7.194273   46.031353
H   36.084335    9.376527    9.564308
H   49.149227   89.891434   19.363005
H   98.325928   86.525879   11.041566
H   74.900856   58.248459   32.716572
H   21.308750   46.859150    1.038363
H   76.117477   64.179222   67.712685
H   56.474453   40.698837   40.886848
H   93.677292   67.957916   68.918274
H   18.179752   97.718529   75.852028
H   43.208851   44.755608   99.820251
H   19.012762   55.360050   85.144379
H    0.161321   47.527222   47.266514
H   74.773674   35.398941   26.019829
H   90.380463   44.281506   37.779629
H   99.072861    7.904298   42.806381
H   75.255341   62.557716   74.559135
H   98.348282   61.267555    0.194586
H   37.373924   24.722229   73.616753
H   68.597031   66.064713   38.435677
H   37.319550   73.904076   71.258430
H   42.714531   86.978195   96.221848
H   72.845207    6.966435   31.680687
H   45.248627   65.737289    7.650753
H    7.004833    9.343067    5.414749
H   30.984596   23.485939    6.405067
H   34.468491    0.517784   79.542221
H   76.358528   69.235062   76.595848
H   76.248215   33.558533   84.209625
H   19.550978   69.501465   92.465881
H   82.280434   95.955490    9.353992
H   11.084961    5.464265   78.842979
H   20.038118    0.616428   48.908340
H   33.326641   70.876625   41.661125
H   74.360115   34.913593   35.024136
H   29.699984   89.635582   99.798721
H   66.538162   45.097256   68.882774
H   38.747311   62.951313   57.492012
H   72.555565   40.591602   66.788826
H   83.691772   69.267250   41.771080
H   96.993790   74.812027   43.025967
H   71.538231   72.969437   18.768682
H   96.246681   80.719543   49.073498
H   52.931023   88.761909   61.452591
H   38.037659   73.600487   21.124695
H   50.004635   70.712364   47.402069
H   61.087563   83.364365   33.400284
H   26.796217   52.939476   49.974503
H   47.017441   49.131264   92.196297
H   77.231522   28.206451   81.541794
H    4.129693   11.073582   26.402872
H    3.926191   26.478432   17.385786
H   67.566154   59.570274   59.340618
H   72.601761   80.186523   23.555845
H   80.499596   55.515656   17.217239
H   57.426147   21.940617   40.131691
H   13.271892   20.244778   84.083221
H   23.020430   53.709564   85.611565
H   99.059784   55.821278   76.407478
H   12.574795   65.693703   73.778473
