100
TIME:    7.061, STEP:  7061
H   39.815262   74.493355   92.681473
H    5.469376   87.488945   23.323498
H    1.142726   81.900841   40.456432
H   82.661774   41.737885   53.126293
H   31.926283   38.727627   74.252762
H   18.520481   93.558388   78.021103
H   82.902740   38.130482   42.632549
H   64.905617   99.468903   59.877182
H   80.055016    7.407025   55.623058
H   81.898567   17.770494   84.184456
H   43.458008   50.357151   59.597435
H   86.341980   77.622147   90.319756
H   93.493095   34.591412   23.404045
H    5.463057   83.311897   94.584618
H   66.368904   39.309502   11.339939
H   17.616081   94.148010   46.916504
H   56.303505   49.000278   16.179041
H   52.063793   51.250717   54.754028
H   55.240330   74.571991   35.362499
H    2.283981   55.862095   97.078362
H   45.266968   53.273132   65.592445
H   39.325287   53.457565   17.968872
H   91.467674   37.195564   30.327810
H   62.990219   21.298311   82.662628
H   77.042671   26.187309   88.686989
H   14.314068   17.942837   26.411039
H   53.201611   48.960510   40.069889
H   36.755165   86.023323    0.170271
H   64.705513   89.721382   23.394495
H   71.743347   16.080406   44.717522
H   93.949577   55.228485   50.735161
H   11.593056   57.420933   45.591911
H   67.725471   51.865761   33.907600
H   76.445671   26.624100   74.282791
H    5.226896   25.053230   54.649582
H   86.438545   38.476944   97.226967
H   57.040092   45.946899   64.844513
H   72.146904   29.732746   20.716949
H   47.026257   27.568457   60.048889
H   98.126488   51.156620   93.579147
H   52.682037   98.464928    8.699167
H    5.151289   69.292862   40.436497
H   72.054230    5.844767   11.498045
H   28.475071   31.161215   71.122063
H   44.166122   53.299511   60.339058
H   86.980278   97.594620   11.847330
H   96.898727    8.838838   93.242775
H   56.618587   68.095993    5.472488
H   71.428169   47.657368   62.810120
H   73.986572   38.206371   89.826881
H   43.016750   87.949280   27.859638
H   48.292942    8.530075   10.525985
H   55.340038   62.950806   92.776680
H   13.177261   91.995270   43.398148
H   78.587418   77.397652   60.407650
H    2.390226    5.106236   52.253693
H   43.888027   85.804100   27.547417
H    0.279457   10.062918   31.681334
H   47.162491   37.118259   69.411644
H   93.066170   70.520920   62.778954
H    5.113522   50.201500   63.863586
H   48.309242   62.219284   75.867050
H   53.432613   25.453285   49.276489
H   27.905514   80.227341   35.433849
H   12.585185   96.893585   53.129337
H   67.579071   91.250206   63.685272
H   21.051374   92.479858    7.966774
H   92.614052   21.363665    3.759231
H    8.820290   42.427902   17.378391
H   73.437950    3.288823   86.864685
H   97.812935   14.971437   77.449074
H   91.801018   17.159485   73.616722
H   46.601105   69.043961   80.705383
H   74.766670    2.529299   83.613251
H    2.607628   38.712124   36.671375
H   92.582451   60.117970   20.814047
H    8.072120   14.652653   15.969229
H   63.718945   89.018852    4.391141
H    0.115169   32.778339   96.458931
H   53.246719   24.373680   12.609656
H   49.046021    2.331485    2.009008
H   71.147652   90.262360   96.281395
H   64.500710   25.202917    2.396543
H   35.935261   16.384068   18.504314
H    8.517424    7.214171   63.267616
H   88.781113   68.418564   32.120605
H   38.743015   89.960243   60.239098
H   69.589317   40.045628   22.366295
H    2.217941    1.027583   70.440926
H   42.051617   18.766560   76.629471
H   12.987965   54.704277   82.577194
H    0.741395   26.533787   68.063210
H   38.077106   39.384815   65.042549
H   29.685211   41.555504    2.911411
H   34.512962   17.247864   78.340881
H   77.131226   16.900843    2.738951
H    2.133724   72.896072   31.105026
H   24.647959   35.837788   37.132248
H   72.343346   67.293312   53.605289
H   77.796486   97.438614   17.531422
