100
TIME:    5.264, STEP:  5264
H   61.339516   39.285652   94.326675
H   55.096077   90.111786   10.017173
H   70.240784   52.617004   61.556156
H   82.360153   15.773453   51.626091
H   48.021881   94.690323   22.976017
H   46.392956   95.505211    0.057304
H   77.083168   16.787487    2.104677
H    6.146278   44.004375   24.870655
H   24.228767   80.181198   68.738060
H   30.988050   91.966606   13.821196
H   10.610565   78.051102   32.694668
H   54.930458   87.547905   18.231733
H    8.160233   43.266304    1.964297
H   94.439461   88.850746   57.833847
H   44.529549   99.826126   97.735870
H   89.869263   51.320389   96.082733
H    0.807456   30.143497   52.591034
H   13.634814   38.689663   17.048471
H   27.257011   99.182831   40.689472
H   50.694069   94.027870   74.730232
H   51.903496   32.169586   14.370667
H   67.045151   51.072021   71.000061
H   15.461967   51.810448   81.740616
H   29.956165   99.800995   16.122375
H   41.312653   68.699081   75.415688
H   22.550039   71.042480   95.415344
H    8.157877   23.658234    4.411066
H   88.380836    2.145428   40.773064
H   25.631950   26.683058    8.340572
H    2.839044   60.555717    1.861934
H   23.226231   94.088913   92.908012
H   98.129524    7.075099   11.949165
H   41.146442   83.343300   72.019646
H    0.517419   91.308617   49.986778
H   49.922928   61.002060   45.268372
H   30.227774   97.727348    2.876957
H   84.684937   11.756176   23.247784
H   46.420460   62.623089   93.907967
H   22.876720   66.723503   34.191193
H   67.382591   19.384991   52.195591
H   75.494736   36.803299   66.363258
H   58.522148   48.109634   50.103901
H   56.582752   95.066589   81.697853
H   43.218929    0.998808   95.422409
H    0.043097   24.201729    6.564888
H   10.174061   63.319569    4.546610
H   82.859665   11.111833   75.995567
H   56.520542   49.587463   94.284447
H   18.903137   96.486023   34.490601
H   36.279629   10.852797   15.493675
H   43.143009   61.438309    8.917962
H   60.952888   75.280090   28.490074
H   18.062489   52.531189   97.143700
H   54.787178   21.315407   64.102135
H   21.667595   19.916498   45.120975
H    0.151999    6.996506   13.427826
H   29.966644   37.656395   56.637672
H   34.086807   79.767677   77.966415
H    5.437956   61.186005    7.362453
H   11.649910   32.396748   13.889900
H   91.757446   33.771954    3.973819
H   12.087126   78.945511   57.176582
H   31.432920   48.077438   72.502167
H    4.508526   70.438385   84.222137
H   41.259880   40.417210   85.782188
H   77.970207   80.584099   57.432091
H   65.227936   30.353283   21.208389
H   16.745476   18.591120   17.852240
H   19.258451   71.548866   30.083641
H   37.034286   12.905621   90.648651
H   54.877129   37.237885   99.001228
H   39.926208   76.822968   42.027390
H   63.768738   57.925720   26.778954
H   14.328915   16.260834   90.384972
H   15.970317   36.144833    0.444442
H   50.104317   44.946152   41.728893
H   44.892246   70.298531   84.144875
H   79.292618    6.519879    5.149703
H   13.941863   38.056698   76.414879
H   41.369469   22.263214   67.422943
H   13.880022   83.740158   94.606331
H   36.290237   78.605484   46.605370
H   50.835442   95.152039   31.260458
H   12.305136   62.611008   82.631805
H   96.015495   19.618065   37.466560
H   30.140202    2.408797    7.331336
H   18.725393   20.617249   74.551331
H   40.687576   83.846405   41.000282
H   64.926376    1.081642   85.138069
H    0.929778   92.699387   12.393425
H   39.447258   57.671215   44.627850
H   67.781593   91.382736   33.827660
H   22.885866   85.467049   26.077778
H   56.012726   32.533886   81.742622
H   65.579872   78.212883   37.046299
H   28.706436   87.862457   95.556290
H   44.770531   69.770882   34.451767
H   26.187414   61.057495   71.797981
H   57.948242   59.541332    4.121033
H   66.176880   43.550648   90.642654
