100
TIME:    5.994, STEP:  5994
H   11.972857   72.341850   93.658340
H   34.934639   29.669828   56.047413
H   82.794342    5.136744   52.984760
H   82.482681   85.696930   11.610801
H   41.483337   53.202957    3.184060
H   35.070248   94.714348   72.352867
H   38.824657   66.082527   59.191685
H   48.769714    7.159737   57.845547
H    6.283974    9.994769   22.785593
H   11.043314    2.448521   42.407078
H   42.707748    7.424212   62.376160
H   27.066460   24.138645   66.269585
H   61.577316   99.120750   29.427666
H   58.293678   86.600685   13.385555
H   53.407265   34.618912   62.648067
H   60.518219   87.471779   35.487030
H   42.105354   78.426796   19.045813
H   29.245794    3.170967   91.742714
H   38.625439   29.808954   79.148773
H   31.028313   78.522499   24.431971
H    8.584251   59.496540   94.556572
H   37.030960   52.041107    8.833771
H    5.714186   45.873405   60.855148
H   62.129902    8.533907   61.907909
H   15.204783   10.805016   80.806923
H   19.222288   49.462646   26.769012
H   45.209824   93.313065   18.896284
H   26.785763   36.219353   64.905319
H   41.504906   92.914825   73.832733
H   30.828995   42.488396   59.894302
H   51.958214   59.548283   35.152733
H   44.221989   86.904236   44.369438
H   92.566154   29.932306   37.783813
H   31.363171   24.408287   19.233389
H   31.777599    5.818806   89.721436
H   93.686096   54.904671    0.581166
H   54.701004   85.021606   80.769142
H   16.250275   49.261959   45.420872
H   92.062927   50.817131   63.449135
H   98.625977   51.045567    9.629461
H   25.603889   61.849152   83.561745
H   95.072205   65.108612   85.963615
H   62.870670   99.444183   34.427216
H   96.607346   13.251974   66.796593
H   36.720760   95.400436   69.033066
H    0.753847   77.243210    7.512480
H   88.562790   50.812393   83.001945
H   56.559528   57.106232   39.452656
H   40.239731   36.026566    5.369945
H   51.590069   21.963865   64.434494
H   43.090015   90.961182   16.613449
H   96.430336    7.540702   80.567238
H   33.205845   56.763977   54.747768
H   37.883873    9.403108   96.315880
H   63.543785   83.890610   51.330921
H    1.061279    6.228617   88.576889
H   76.244743   16.592705   26.066841
H   79.730133   10.828070   59.163925
H   63.009621   92.029839   51.322319
H   63.475174   88.506607   93.126976
H   37.807178   99.824112   47.055912
H   86.179146   72.150772   24.144127
H   80.993584   98.262856   22.443878
H   54.637741   74.414978   64.406006
H   70.236572   82.113693   53.764301
H   33.124931   44.293510    0.595408
H    6.658326   55.588680   56.452774
H   66.319160   60.340672   52.750462
H   55.643719   19.095711   84.299500
H   51.821198   49.623726   89.111481
H   31.697006   87.569016   90.246040
H   79.734024   52.595825   95.474197
H   16.171223   21.818924    8.060005
H   98.260338   70.057701   47.010033
H   51.164989   37.186321   55.784073
H   67.362984   91.731865   92.609558
H   11.170939    7.025572   97.054878
H   13.589351   58.788567   45.466682
H   48.945988   35.912457   84.557426
H    5.573967   82.497841    4.532759
H   28.165476   91.292343   38.235905
H   91.078720   83.342743   85.542656
H   97.007835    7.359750    0.781099
H   62.526031   25.078815   15.958270
H   60.471214   73.957710   66.701324
H   13.337147   29.222954   58.024780
H   67.480431   67.540154    9.360571
H   52.429008   25.427359   33.429321
H   80.075302   60.435783   79.167610
H   36.388454   62.668621   38.488235
H   69.321831   97.090942   60.044109
H   21.794199   46.285141   47.734596
H   69.680450    7.367979   82.529800
H   26.564701   76.822212   30.965151
H   52.959480   12.823086   53.821507
H   89.001389   59.034943   57.851059
H   86.827049   11.663959   92.468658
H   26.707521   83.041275   58.550072
H   23.172546   62.688076   42.977249
H   11.522318   24.819492   20.319218
