100
TIME:    3.004, STEP:  3004
H   14.174204   46.539177   96.395767
H   17.708595   67.618362   67.491409
H   31.390814   90.024216   88.076607
H   81.980820    8.884905   75.504578
H   68.264496   13.541348   84.254349
H   81.438240   97.953636   76.242546
H   95.531242   64.183525   25.369652
H   83.777817   48.485516   32.376682
H   79.783882   97.470932   10.995419
H   92.750298   59.516350   25.322969
H   20.830261   87.115128   50.388561
H   41.187119   74.265732   79.101250
H   52.177132   79.961121   26.556065
H    6.340728   95.816689   85.845680
H   17.040421    1.698231    6.371978
H   80.739777   48.988312   83.682961
H   82.543282   80.661591   46.854321
H   65.338585   48.616188   95.400085
H   92.055107    4.373185   21.625154
H   11.587280   42.021435   20.858881
H   86.015106   57.160454   75.707764
H   50.376755   48.071838   63.459930
H   45.636299   70.190880   46.402939
H   39.937378   72.709961   83.970558
H   22.143623   47.927696   58.725479
H   32.884846   38.100002    7.606832
H    3.040140   17.603842   59.577564
H   79.072716   96.656288   66.070366
H   76.489700   21.638330   15.171671
H   16.180332   16.491379   22.197796
H   34.281017   91.430206   71.712029
H   55.431557   69.512047   21.168709
H   81.955536   48.695076   68.420998
H    5.026870   98.424171   45.196732
H    6.099411   31.840881    7.652000
H   33.740841   20.464376   10.313661
H   67.920876   94.521957   45.168697
H   39.830078    3.972497   34.425266
H   18.272003   15.965090   53.202164
H   80.249832   30.958570   74.383461
H   29.949194   59.255894   13.118869
H   61.638756   46.680313   43.931229
H   37.116047   81.514038   18.455990
H   87.533783   63.119926   74.448570
H   96.081093   13.369909   13.171214
H   39.331875   20.213490   95.366554
H   65.203415   88.204987   54.296883
H   56.399845   26.312288   54.448418
H   52.837738   83.658195   24.642756
H   88.884239   76.465950   73.560089
H   43.315434   79.626526   85.090530
H   51.121113   84.990601   76.855431
H   71.192116   39.426941   28.401314
H    7.129818   58.196968   64.374664
H    1.609795   21.846870   25.898401
H   97.324905    9.374891   90.363556
H   86.692390    2.867413   41.692909
H    2.372501   93.196594   36.180496
H   27.195953   65.695084   80.864983
H   60.784447   58.686481   78.169685
H   49.195564   38.871868   80.180008
H   92.296776   99.981277   59.434837
H   78.002556    2.295168   27.477188
H   49.319283   58.135513   45.583515
H   51.557323   20.919205   75.318443
H   16.804543   92.935188   23.804256
H   46.552254   52.217197   12.095149
H   72.858894   89.338684    9.811172
H    6.619984   33.938042   71.827888
H   91.246399   99.234444   95.407562
H   26.642368   91.007240   26.114113
H   26.273920   51.828247   76.561249
H   11.124907   69.714836   84.724602
H   64.084282   59.281609   24.671898
H    7.007266   32.920498   29.121960
H   96.672142    0.100339   93.798798
H   39.698681   66.181046   44.176914
H   73.113708   54.297321   80.340012
H    5.566648   44.695034   51.197693
H   52.203560   45.350079   62.123917
H   69.666000   60.359417   59.530689
H   66.718735   63.845963   35.585304
H    7.861954   57.398804   16.015903
H   56.819691   69.217743   89.048035
H    6.059018   60.983913   56.548302
H   82.154602   19.395527   50.390133
H   67.785088   84.937645   66.785614
H    4.312609   64.786896   64.502083
H   18.024395   26.913946    3.623172
H    0.744004   85.682449   31.604038
H   46.958679   35.639286   96.900711
H    0.556695   21.423960   90.763908
H   78.016876   17.651320   51.308372
H   37.575985   95.447197   29.363323
H    4.652021   80.649780   85.116081
H   42.039688   77.106819   12.288589
H   24.158840   40.073849   64.426811
H   17.893805   41.814941    7.969776
H   65.609825   49.799358   93.419731
H   25.801180    1.547694    8.354327
