100
TIME:    8.918, STEP:  8918
H   14.234344    4.198606   90.981339
H   54.182632   88.117142   40.413517
H   33.063129   15.500590   18.656548
H   82.973465   65.228874   51.337540
H   15.286219   87.574280   23.901592
H   89.724365   91.546562   61.926231
H   85.577477   63.525452   87.852379
H   18.949081   60.121235   89.372414
H   34.406410   28.863308   38.730869
H   31.177778   44.434269   56.896492
H   70.724396   25.076584   80.722191
H   15.465012   70.703896   58.135933
H   75.078354   22.193336   38.861107
H   13.515695   77.588112   35.904079
H   88.924019   73.433113   22.034523
H   42.950317   31.728172   92.768616
H    6.974476   71.826225   85.229073
H   91.769669   60.889061   90.384842
H   84.166656   52.475842   33.196384
H   52.247334   16.430349   23.511469
H   35.069954   68.402985   15.194822
H   17.357691   55.922760   59.828201
H   66.674049   22.097353   77.195633
H   90.447083   43.513397   44.746174
H   10.626086   78.918655    2.400256
H    5.557285   63.200851   51.659031
H   93.069725   71.767776   76.915329
H   80.066406   72.701797   61.556526
H    5.084006   58.202633   35.612633
H   42.948204   70.118881   92.344391
H   67.037056   21.750340    3.815301
H   28.845142    6.118763   73.680153
H   98.528091   15.999104    1.200823
H   54.909042   56.441193   96.051033
H   59.011360   84.452278   67.632294
H   47.863758   83.928131   91.389839
H   35.151436   77.938240   11.168778
H   95.395409   95.747566   51.758804
H   68.642143   87.110069   80.092117
H   23.217867   77.310463   39.684303
H   25.769041   62.177986   52.448696
H   48.653473   76.575104   35.240803
H   88.035492   16.984501   45.628826
H    9.900669   62.337051   52.688328
H   83.085114   80.041710   19.248857
H   63.008972   33.008007   19.391676
H   11.414155    9.829157   11.072414
H   56.731930   87.222504   20.372440
H   25.712662   93.862038   88.731262
H   12.972776   66.472343   59.987286
H   42.889240    8.667938   47.438019
H   38.544292   36.214603   88.624702
H   93.851265   73.718323   84.929398
H   70.168213   61.703468   25.342442
H   30.730904   40.135803   76.193787
H    4.703117    3.152853   89.037018
H   61.612946   32.221535    4.163404
H   62.003113   34.692513   83.847313
H   93.621788   15.585893   26.850355
H   70.521767   13.254697    9.961449
H   22.254942   63.840969   19.079082
H   82.400658   44.934586   91.843346
H   79.504242   98.734276   21.936432
H   55.423855   90.343140   85.015762
H   86.294022   48.578571   26.063452
H   53.502022   98.933525   73.486122
H   72.060562   56.678616   97.622421
H   64.338486   27.567829   92.534576
H    1.372610    8.995720    0.910307
H   11.144942   96.573380   82.928680
H   38.840565   88.618690   55.177315
H   38.891609   55.487694    9.732162
H   25.521530   77.189140   33.092297
H   33.888882   84.999428   73.276466
H   92.060699   41.446507   77.470444
H   36.484978   79.133659   95.861526
H   76.727371   53.925625   48.905884
H   50.958012   67.600121    6.956494
H   89.164223   27.323742   17.181284
H   62.178185   23.213793   52.627525
H   85.400063   21.543161   13.000018
H   10.496115    2.307348   40.924019
H   81.957726   56.258701   79.248558
H   63.691948   75.291725   48.895237
H   18.098618   91.046371   83.253632
H   46.045116   36.626572   61.076202
H   62.767902   54.940910   48.787880
H   99.455009   91.447304    3.112126
H   40.759525   97.632805   55.253059
H   77.868271   42.366364   43.013298
H   88.983971   54.975323   21.793968
H   38.140591   66.198242    3.453050
H   57.114475   95.098808    8.647212
H    9.155798   54.217640   28.124773
H    2.402538   50.910183   21.012087
H   30.511856   43.569397    6.822605
H   54.733299   79.464561   24.306213
H   21.063509   27.723438   99.850670
H   83.880180   75.312279   98.060661
H   93.143204   49.782413   38.641041
