200
TIME:    0.712, STEP:   712
H   23.974684   60.908527   23.410484
H   32.171204   39.768822    9.058795
H    8.244994   89.797516   68.596733
H   33.752853   82.490608   32.157013
H   10.198798   95.692017   46.872276
H   74.263611   40.004173   51.578865
H   10.197661   54.969231   58.787289
H   13.465882    9.267669    8.318540
H    6.596607   80.430115   36.204983
H   94.245926   68.287315   77.454903
H   28.645288    4.676949    7.877312
H   32.729584   54.621201   35.232079
H   22.758831    2.672823   41.946709
H   82.094673   55.198330   65.010185
H   96.833755   75.578072   41.817245
H   15.542500    6.518764   44.140968
H    6.411134   29.824593   92.515419
H   25.354370    5.857751   35.117260
H   80.729706   12.614008   49.432106
H   91.557899   73.222740   19.173664
H   63.749565    0.320074    4.216269
H   79.521095   66.855751   52.385666
H   80.870995   59.109634   37.810829
H   18.605713   92.362465   90.106041
H   23.762009   31.687109   28.568127
H   18.270376   83.283585   91.367500
H    8.036311   68.267586   68.059525
H    5.342789   89.600441    1.973242
H   30.948322   42.183052   35.574539
H   71.720261   33.408718   82.298630
H   12.745258   71.168739   16.771885
H   23.342892   74.568832    5.224058
H   15.718697   19.141779   78.944473
H   80.805092   64.092873   46.540359
H   25.337416   70.297592   30.628473
H   17.643257   39.160141   84.888893
H   99.811707   64.241562   89.498390
H    9.568082   56.964756   93.945648
H   35.601440   29.499107   54.923363
H   85.556198   37.747509   45.258881
H   80.644753   83.174606   17.191078
H   36.832718   33.209335   25.835167
H   68.203323   76.939095   67.854713
H   36.229752   86.158333   35.629078
H   44.904236   90.695847   61.396996
H   34.417610    1.554763   47.821209
H   88.868805    3.087679    6.527493
H   78.624794   65.543404   30.679398
H    5.334279   10.840549   61.506634
H   45.226559   19.931540   85.744141
H   66.980087   64.521935    9.163117
H    3.095257   43.822002   73.689552
H   64.907188   80.923424   14.096792
H   15.381758   92.144272   88.692848
H   57.220139   65.887802   75.508400
H   99.255058   60.721680   94.104034
H    4.083457   18.531593   44.591480
H   72.565414   69.551865   96.783989
H   18.221491   83.595383   18.542240
H   32.186634   93.338783   58.268829
H   48.890862    6.167559   28.445957
H   98.419670   17.543016   52.684608
H   84.450790   34.984009   68.960968
H   35.562431   65.825737   14.205956
H   78.935837   83.115570   37.230701
H   20.224203   34.898552   41.347427
H   68.544289   13.205791   95.586830
H   94.698235   92.523048   96.616341
H   33.311523   12.231650   56.005623
H   42.519955   49.856640   50.957386
H   58.258102   84.755768   85.906708
H   18.875042   11.415399   41.460842
H   92.474258   33.823132   83.690643
H   23.242613   98.589836   74.313881
H   84.892349    8.512160   45.419296
H   65.244118    2.412923   59.793152
H   93.432587   47.521637   65.469185
H    9.073105   14.564802   31.827522
H   15.119064   50.722057   24.484066
H   61.163250   88.034561   71.877350
H   63.400875   22.124769   94.126190
H   47.391018   60.101688   73.265678
H    9.158214   18.843744   76.469597
H    9.282175   77.293800    9.234956
H   22.100204    4.315051   44.406006
H   37.964676   69.259796   17.957291
H   57.009727    3.767653    2.853435
H   71.406319    0.977035   29.244999
H   80.132889   73.206039   78.870605
H   21.080025    7.203925   49.672756
H   21.457199   38.967411   78.655060
H   80.767647   92.676697    8.666752
H   69.682236   11.538811   82.287018
H   38.862553   77.476189   82.064934
H   37.084587   50.541496   87.598045
H   49.725441   38.262245    6.869310
H   85.708305   97.953392   18.657005
H   93.919548   35.772736   53.062504
H   26.322716   65.049820   54.553947
H   75.411278    5.596840   27.365641
H   30.925200   93.476685   91.165627
H    8.123322   83.797501   63.261024
H   32.963516   19.920176   37.098415
H   44.555870   68.810944    8.906405
H   24.713053   21.269882   40.390301
H    6.109438    3.663889   21.792360
H   88.017372   35.957531   54.062576
H   61.969852   52.396782    0.490153
H   84.791740   34.131676   21.956196
H   19.529055   21.479425    7.847353
H   53.404594   91.965157    1.127937
H    4.946083   75.214539   95.887566
H   48.896194   85.751892   83.668709
H   61.625298    9.221611   62.782532
H   48.099159    1.623186   10.222865
H   94.776039   91.990059    0.227545
H   13.168685   15.088943   89.682541
H   38.376400   50.228809   24.543694
H   36.787346   75.434494   60.212193
H   83.238747   56.095272   66.950516
H   45.480843   24.895969   72.053215
H   97.923492   16.298695   62.072105
H   43.615791    1.915522   38.031414
H   97.123322   50.334007   97.195549
H   62.792961   97.265800   77.202477
H   65.014702   75.266113   16.417967
H   83.654335   51.393784   52.826126
H   65.104393   91.271873   38.988964
H   98.276253   35.398373   74.133858
H   90.622818   21.912178   74.542809
H   67.662239   68.332672   21.449123
H   63.583000   90.732773   20.457905
H   90.896492    5.558566    0.886491
H   77.776459   25.104549   55.516216
H   27.743229   92.835602   34.727615
H   49.786728    1.021082   76.727928
H   69.674149   87.767281   78.835670
H   95.244347   49.483555   75.740547
H   58.650513   50.934402   71.438454
H   43.703621   86.453026   82.342377
H   73.985031   49.188324   30.156860
H   35.509415   55.352104   57.249973
H   39.832375   65.448280   83.463898
H   36.085030    9.442078   85.945961
H   62.488155   54.113205   64.502747
H   63.234291   70.107407    7.240417
H   55.894585   94.710777   43.902287
H   29.764198   55.849052   66.116966
H   77.803436   45.085472   93.252258
H   24.507973   93.827934   72.333664
H   59.583740   69.325943   47.780933
H   53.656296   94.049187   33.360916
H   98.102692   14.189724   86.895706
H   22.386932   11.976885   64.288643
H   32.329121   66.344498   69.292046
H   77.513878   44.699253   68.582855
H   64.251938   75.039017   86.344650
H   52.756668   29.086838   20.782131
H   90.779137   99.955856   85.100288
H   58.387897   37.685272   96.354477
H   58.592331   65.233665   70.866142
H   21.442667   20.610271   31.454956
H   85.536613   13.990818   37.035793
H   28.600225   34.045597   51.005127
H   54.434837   38.104141   14.462278
H   20.045822   49.421017   59.721653
H   66.772209   89.932686   57.225391
H   24.044537   52.407570   67.530533
H    0.486571   26.635252   35.742401
H   48.012779    6.897801   85.088165
H   70.347900   11.246993   35.936462
H   29.857157   47.915428   58.907547
H   46.792664   57.172382   77.143265
H   65.413803   63.248405   85.190140
H   49.500122   91.485886   77.038002
H   15.480019   50.210449   23.740046
H   30.568897   67.666199    6.652069
H    5.913264    9.650993   70.915604
H   63.530697   10.406861   63.614521
H   63.847847   59.518211   93.043388
H   72.800446    2.103787   30.745129
H   28.748007   30.682217   86.847305
H   43.902325   89.669403   15.418106
H   61.759903   26.093746   94.554665
H   91.626785   67.862274   76.452255
H    9.141541   40.206558   86.316505
H   47.787292   96.439827    9.723547
H   67.745087   87.217720   42.042519
H   92.949135   63.278233   71.937820
H   58.196732   55.705746   71.666397
H   70.367889   15.408287   75.930855
H   43.783562   97.756226   18.612394
H   14.584632   28.753075   68.619209
H   26.857668   82.368347   42.825520
H   68.696976   33.172848   20.272324
H   76.480484   11.541641   23.099743
H   12.598716   98.429649   19.397932
H   15.192072   88.025383   33.655342
H    5.619082   12.932589   56.907570
H    3.084822   19.001438   91.191238
