100
TIME:    8.551, STEP:  8551
H   39.052483   37.853508   91.317337
H   64.318588   68.231628   17.272511
H   26.754755   89.097504   22.964329
H   82.911865   80.348808   71.454414
H   18.574804   58.157612   33.851608
H   95.413940   91.944160   25.579838
H    4.812956   38.742760   59.152500
H   47.794556   28.372171   23.069054
H   43.427971   64.148880   61.833569
H   41.201851   39.164692   42.526955
H    4.861832   10.310578   16.074259
H   29.473351   52.307980   84.259819
H   98.480652   44.405640   75.331818
H   31.686312   78.719307    7.974202
H   84.466438    6.215347   39.682846
H   57.706253   63.827232   23.233269
H   36.486549   47.552227   51.819618
H   83.920624   78.747383    3.107528
H   78.449081   37.078709   13.862468
H   62.134090   24.224115   98.524483
H   56.848259    4.937579   25.155779
H   82.173042   55.435562   91.081665
H   71.574028   25.080740   87.695587
H   24.546366   39.123016   72.003235
H   23.751316    8.022507   99.691017
H    7.288378   74.020004   86.195084
H   24.716295   87.022110   69.635361
H   11.033520   55.571476   49.424179
H   97.103737   24.905478   52.961357
H   28.875774   79.202042   63.168518
H   52.592510   88.840477   32.851173
H    5.672721   16.258137    7.655132
H   72.678604   42.850151   68.138565
H   39.402710   90.074646   11.511667
H   68.144920   12.239281   45.302845
H   15.961401   55.182594   92.543434
H   99.951591   91.378181   82.250755
H   10.564312    2.462770   25.861717
H   84.131676   95.106834   15.656963
H   57.784073   11.667024   10.809056
H   50.850983   49.586441   43.802334
H   79.582138   75.135910   16.504925
H   84.877106   14.782698   19.121342
H   33.333767   56.174278   16.806484
H   14.920231   94.517647   87.843071
H   67.745964   26.009235   17.900682
H    8.544868   89.870125    7.547975
H   56.709530   83.442520   97.665001
H   14.985909   24.256538    3.370047
H    5.269310   60.885128   85.646812
H   42.914440   44.099907   43.568436
H   20.707483   70.270340   12.716260
H   86.240898   71.590332    6.243311
H   78.668976   67.690918    9.148711
H   59.951637    7.973217   73.074600
H    4.246019    3.538901    1.530575
H   38.347847   42.811089   69.258690
H   89.330994   69.350761   93.300072
H   64.675514    0.077985   55.026375
H   94.741661   85.046387   20.399803
H   99.103775   80.909668   47.692158
H   95.426201   48.350571    8.448309
H   54.588894   23.778257   47.102722
H   30.221264   88.343948   94.978119
H   71.728485   77.890320   91.885986
H   76.047523   17.177635   51.786213
H    1.505294   43.991871   79.904099
H   89.689575    6.577745   74.989853
H   83.082916   35.366005   23.928566
H    3.691180   78.138260   83.707077
H   50.496914   13.590039   59.578896
H   69.112350   67.673241   82.830551
H   49.450226   95.344261   42.503056
H   41.966846    8.227520   95.082771
H   74.381577   40.906109   49.644169
H   27.807817   55.612762   20.555891
H   43.396317   85.689575   42.395912
H   33.718487   91.596016   86.685425
H   71.563499   28.401737   13.085400
H   80.176506   43.206322   84.244987
H   78.215294   17.746378   91.064529
H   82.956131   99.924988   71.626579
H   58.745193   50.121128   44.297535
H   38.444458   43.887062   82.415428
H   35.968140   14.004963   18.829842
H   54.492680   23.145550   35.590714
H   38.256809   81.624794   31.287956
H   93.552635   20.814285    6.917358
H   33.143559   18.066393   58.254646
H   10.315179   57.466698   29.895132
H   73.964836   35.159809   14.043601
H   10.986307   38.595963   96.459969
H   33.588978   84.089256   80.266541
H   73.685989   31.952137    3.379529
H    8.748402   83.783157   12.579639
H    0.199098   58.062134   25.778862
H   83.864372   58.403053   45.413033
H   21.771906    9.564118    7.218863
H    1.363273   73.727486   28.801533
H   70.345703   59.198772   73.995697
