100
TIME:    9.994, STEP:  9994
H   41.468170    5.524721   89.996231
H   24.466267   46.425190    8.258025
H   51.558521   92.912743    6.025028
H   83.154068   20.898012   92.357071
H    5.644480   73.820160   94.728249
H   73.043213   90.380852   68.485893
H   29.184940   36.181229   71.996994
H   34.377609   53.209141   90.577568
H    7.956274   25.409451   71.001884
H    1.784672   59.884037   99.026253
H   70.637421   68.371399   77.073662
H   74.399361   24.637234   81.545448
H    6.465359   57.064499   31.931980
H   60.238327   74.271584   17.787502
H    1.993414   77.319489   70.286888
H   99.684784   37.617233    3.451134
H   20.449104   42.995651   83.181595
H   14.783141    8.530895   53.084511
H    0.929875   97.612274   89.897903
H   23.260548   93.578827   96.770622
H   71.218094   61.284771   85.987427
H   20.514862   57.351166   68.196869
H   52.307526   13.343994   46.455383
H   90.471146   56.385468   64.834274
H   72.141830   93.585770   10.342789
H    0.481574   31.480461   50.402348
H    0.284774   27.037569   98.259323
H   89.277046   22.925846   97.119469
H   28.481136   55.825748   84.750687
H   84.207787   43.488144   77.883095
H    9.381616   18.237404   18.685623
H   96.784714   76.386414   74.069450
H   74.322182   37.273346   98.135399
H    0.371766   57.832207   50.719673
H   32.232857    2.983951   33.096416
H   41.398304   68.208771   88.007637
H   38.353706   38.533943   95.953568
H   50.920223   76.061836   27.689964
H   23.221317   63.664513   75.819740
H   21.870693   76.578339   24.341406
H   52.232101   99.102692   77.798790
H   57.973289   80.801041   90.159416
H   97.295502   23.441059   23.349819
H   41.202023   80.398109   57.892422
H   89.717987   37.541965   11.307441
H   49.127167   53.531078   23.763090
H   19.827496   68.350586   21.404707
H   56.797604   98.304962   86.949280
H   57.161850    4.753938   45.765594
H   35.556641   82.857964   84.752785
H   46.930439    5.096024   52.458725
H   90.837082   36.369965   17.991686
H   16.168322   79.957336   22.436024
H   45.251175   44.143929   72.824043
H   45.058022   34.431023   85.338867
H    6.043274    2.021006   52.407440
H   29.828209    1.173471    6.499999
H   81.882278   33.077461   56.132957
H   78.487312   61.055328   44.245800
H   99.518883   95.959503   79.357460
H   90.133301   13.804228   35.192486
H   44.211327   34.919327   43.159103
H   52.586208   25.363482   48.176712
H   29.309818   96.204529   55.805023
H   29.001251   62.639675   26.266367
H   87.402924   45.442192   37.108135
H   85.730812   93.881226   49.572826
H   90.011696   89.104500   43.973602
H   55.003044   31.681229   33.426640
H   32.997910   50.615856   80.646515
H    4.668250   15.403357   42.272408
H   50.284943   19.761131   88.601776
H   55.365112   23.966059    5.501080
H   10.205257   16.900436    9.344450
H   43.891243   43.030888   59.053379
H   61.925377   48.095028   23.460247
H   74.451118   60.795170   67.990623
H    1.508161   97.246941   66.383446
H   40.761467   24.163189   29.191385
H    9.410766   64.598701   59.929207
H    6.464332   32.674877   77.311211
H   91.237602    9.292565   50.905167
H   50.016441   74.253334   81.721191
H   37.720325   67.367508   50.619308
H   65.707321   23.735611   78.948120
H   21.277874   76.151482   35.797016
H   34.631580   76.706627    0.095559
H   16.758549    5.347898   91.961792
H   63.088627   37.721855   46.452766
H   82.735260   98.094345   81.477264
H   33.018974   13.077552   44.517113
H   17.753695   47.123520   23.951708
H   26.088047   27.384405   91.855949
H    9.027741   19.185787    7.001945
H   83.800003   54.528770   45.736458
H   19.385056    1.080830   51.245880
H   69.325645   41.212784   62.423965
H   18.986574   80.963226   78.243980
H   32.621758   79.958702    7.934643
H   59.975868   22.173317   34.986256
