100
TIME:    0.121, STEP:   121
H    9.139930   10.924972   99.035233
H   97.904350   11.305180   85.633179
H   81.843384   82.609200   21.919128
H   81.496918   27.665545   33.530594
H   94.087265   82.456207   62.424446
H   26.140018    1.081958   90.728386
H   46.628300   69.509193   99.914841
H   10.375937   99.070740   97.083672
H   50.653587   74.659698   92.470268
H   71.533867   18.124424   12.427019
H   88.999908   71.111237   28.094463
H   51.223591   29.755608   84.316414
H   35.565720   54.386749   13.102782
H   49.090824    4.704196   66.449333
H   81.974663   59.213196   44.956577
H   96.657837    1.153774   22.995762
H   14.337940   89.999031   84.371620
H    3.730457   88.816299   95.351364
H   47.148460   83.429520   69.736099
H   89.374031    2.995207   24.442881
H   57.096237   44.171875   53.957222
H   73.950050   44.259644    8.952301
H   84.128502   93.638130   28.889019
H    7.799364   38.132969   98.087677
H   25.255186   76.577110   37.451797
H   46.100346   24.007877   77.829613
H   51.645336   37.447292    2.367425
H   22.331100   62.087048   70.775620
H   13.802205   60.069973   51.452271
H    5.633695   87.844925   93.008141
H   20.861544   32.892967   99.837120
H   73.397400   49.167160   88.062523
H   78.881409   59.629204    8.697591
H   83.214592   62.633759   66.653816
H   77.764183   49.773544   32.096512
H   83.075462   93.990898   20.227987
H   91.405083    0.103367   17.999191
H   58.987312   56.739597   30.980028
H   45.281231   77.924995   30.529427
H   51.796085    0.855086   47.554489
H   26.972729   60.330578   45.189144
H   20.746384   17.287157    8.485051
H   12.283902   64.225540   10.213493
H   71.632904   14.799630   92.562393
H   46.159286   27.117844   66.461853
H   76.406075   65.478813   83.792793
H   37.357716   32.268002   28.657171
H   56.245876   96.627899   76.064743
H   68.564384   22.428165   39.647530
H   28.427542   32.591091   75.201431
H   43.531673   57.962875   54.699100
H   11.013646   52.511551   66.119797
H   11.389303   22.710327   95.842171
H   73.883041    5.228005   37.155170
H   31.126770   69.113113    1.432918
H   93.717636   12.405125   88.507675
H    3.923512   86.055412   67.495537
H   17.049818   65.459602   10.438236
H   99.820946   43.881546    2.193809
H   51.036659   37.088486   60.161652
H   67.333481   72.942734    4.962335
H   94.616608   26.819107   89.879471
H   82.440636   98.901787   25.257050
H   51.348763   42.452690   23.855543
H   37.124359   51.180676    6.829316
H   93.912270   36.257893   53.340328
H   77.860405   52.544582   72.904099
H   72.007439   24.457550   71.987099
H   62.934769   41.092033   52.644535
H   32.837967   54.230598    1.476321
H   18.190432   87.171455   60.696201
H   63.988918   47.509789   65.481850
H   99.101837   12.322170   58.647015
H   27.527657   41.722843   96.017220
H   68.004196   28.815866   10.570395
H   28.518499   15.327135   87.787888
H   77.941437   16.056667   93.173157
H   37.665131   42.808414   21.122299
H   67.354164   53.145771   19.037647
H   93.591385    2.363823   10.496881
H   13.249907   30.532919   87.220718
H   50.402760   45.017776   76.662659
H   25.452080    9.276978   41.424438
H   58.494537   22.515720   52.378181
H   46.439003   41.316391   36.022591
H   48.512760   13.494506   50.187183
H   75.236031   94.555229   29.312939
H   57.903030   95.606621   94.480461
H   58.194283   87.435402   27.211018
H   55.637032    4.308485   28.537352
H   28.974398   79.964615   36.017040
H   87.239403    4.606988   35.830322
H   93.047966   31.257071   28.275839
H   58.923737   20.571741   34.977291
H   54.499775   38.891453   18.867683
H    3.915694   90.953423   61.199120
H   52.997795   74.624367   30.230095
H    7.309613   17.267914   54.099205
H    2.947962   37.371876   34.916134
H   46.756023   75.594978   86.031845
