100
TIME:    6.077, STEP:  6077
H    6.359978   64.730309   93.582352
H   32.642311   34.167728   61.281139
H   84.221664   11.107879   52.010204
H   82.496613   82.277435    7.061131
H   40.739914   59.855774    0.933715
H   33.782871   94.624428   80.572319
H   34.474934   71.686699   65.682396
H   42.246078   14.340192   50.224506
H    4.243675    2.014534   17.561049
H    8.775999    3.640357   45.656864
H   34.987289   10.763773   54.381508
H   23.898361   28.299030   60.361458
H   56.280899   94.101692   21.180351
H   54.183952   86.344856   19.702122
H   54.416649   27.205147   58.658024
H   57.181046   80.212318   28.597225
H   35.431007   83.916985   26.601629
H   31.020765   99.132431   88.865273
H   39.917881   33.291138   83.521927
H   28.792343   76.759560   30.083002
H    3.658916   51.233395   92.303505
H   44.988251   52.151291    1.765607
H    4.605937   45.198372   58.480499
H   54.417675    9.526827   55.743320
H   12.236314    4.222488   81.419899
H   18.843927   47.008842   18.964016
H   38.052315   89.863174   20.543341
H   19.782448   40.093513   67.648514
H   43.309639    0.445303   69.909180
H   34.011539   40.434166   66.492661
H   55.225098   66.991005   28.586037
H   49.462681   84.610641   36.685707
H   98.412224   23.859854   45.261108
H   34.870110   16.801811   15.736956
H   29.714188   99.544502   94.775299
H    0.901204   61.405510    0.320143
H   62.661461   81.982056   87.309242
H   12.819845   47.742817   51.277706
H   88.559845   49.008598   55.405724
H   90.807999   43.275082   16.159746
H   19.931644   64.696983   85.517189
H   88.077438   65.434097   90.201256
H   63.585598   99.941910   40.422096
H   91.307129   14.645102   74.912193
H   29.521347   92.125320   76.135483
H   99.682671   78.826309    7.849680
H   89.211227   55.326126   83.798561
H   56.563961   57.961105   44.588230
H   42.665672   29.152748    2.058916
H   53.330845   23.227179   58.629539
H   43.084316   82.948166   17.488270
H    0.464039   99.838852   75.118843
H   34.927624   57.245239   49.926914
H   35.961990    8.048766   99.978539
H   56.935295   91.164001   52.036983
H    1.164655    6.141309   85.751373
H   81.506966   14.197673   33.960808
H   73.549713    2.989563   57.026108
H   69.555954   95.536720   44.950661
H   57.998283   94.885864   90.766258
H   43.042805   95.963882   40.584835
H   83.233315   71.378220   20.388382
H   86.628151   92.599159   16.752319
H   60.337532   74.867111   62.152416
H   73.530685   75.484940   61.493626
H   28.026333   40.167320    5.503170
H   99.998917   58.457890   60.459915
H   60.585808   65.087440   56.718342
H   59.780674   13.131859   79.094269
H   53.502449   53.798676   88.936707
H   29.061146   81.921783   89.250587
H   72.889969   49.841232    1.550856
H   10.759239   17.713631    5.931686
H   96.432808   64.804344   42.078362
H   55.166431   37.304737   62.075943
H   69.324760   97.051079   87.024384
H   18.706810   99.831642   98.522728
H   17.488842   53.361069   50.050705
H   52.925900   35.668659   85.483223
H    1.503717   77.976509   97.382286
H   29.789736   92.151016   43.196705
H   97.308533   83.880997   78.599815
H    2.257632    8.747689    8.685686
H   68.236427   32.181541    8.377599
H   56.429878   68.766411   58.655380
H   11.426662   32.271713   63.788528
H   73.023811   61.505379   13.318319
H   53.763878   18.785624   32.568748
H   81.797714   55.814400   78.488777
H   29.049967   59.253559   41.454964
H   72.718529    1.572889   61.796917
H   27.935358   52.527618   49.315796
H   75.000931    9.858510   88.948318
H   34.586163   81.857735   36.561722
H   51.524559    5.388246   55.728825
H   95.856842   55.757294   53.564026
H   80.238823   16.427015   87.695297
H   26.547312   87.148468   56.884018
H   19.218597   63.045856   36.024910
H   16.677660   22.689590   12.323373
