100
TIME:    6.308, STEP:  6308
H   90.738358   43.546379   93.370865
H   26.263252   46.685986   75.845863
H   88.194092   27.726337   49.297886
H   82.535385   72.760529   94.399414
H   38.670868   78.371445   94.670258
H   30.199932   94.374168    3.448289
H   22.368374   87.283852   83.746895
H   24.089935   34.323971   29.014141
H   98.565193   79.804855    3.020055
H    2.465761    6.957396   54.701450
H   13.500229   20.058371   32.131332
H   15.081123   39.877934   43.918358
H   41.540268   80.132988   98.226982
H   42.746040   85.632851   37.281963
H   57.222969    6.571167   47.550259
H   47.893250   60.008278    9.421691
H   16.855415   99.196907   47.630470
H   35.960743   87.891907   80.856972
H   43.514919   42.982521   95.692993
H   22.569344   71.853065   45.810570
H   89.951065   28.235966   86.032921
H   67.134445   52.457947   82.093826
H    1.521454   43.319664   51.871536
H   32.953526   12.290255   38.586452
H    3.974670   85.903793   83.125893
H   17.790899   40.179581   97.241646
H   18.132633   80.261673   25.127317
H    0.291649   50.875816   75.283188
H   48.332451   21.403076   58.989410
H   42.869312   34.716972   84.856766
H   64.317207   87.706139   10.310051
H   64.048218   78.227264   15.300865
H   14.683798    6.959400   66.071411
H   44.630226   95.632248    6.005873
H   23.967590   82.065956    8.833959
H   20.981253   79.498207   99.593880
H   84.818123   73.522583    5.511094
H    3.272529   43.514843   67.578438
H   78.810303   43.975212   33.019844
H   69.049530   21.649216   34.334507
H    4.144981   72.624214   90.959450
H   68.610077   66.339966    1.994994
H   65.573944    1.327626   57.106644
H   76.555923   18.522360   97.498985
H    9.483852   83.010239   95.902451
H   96.700706   83.232285    8.788153
H   91.015915   67.888443   86.015648
H   56.576298   60.340332   58.881214
H   49.417389   10.022003   92.844864
H   58.178631   26.743910   42.476677
H   43.068455   60.646881   19.923012
H   11.690542   78.404526   59.955238
H   39.719563   58.584656   36.509838
H   30.613136    4.279454   10.171336
H   38.542992   11.407557   54.002048
H    1.452366    5.898319   77.887589
H   96.152428    7.531873   55.930763
H   56.348785   81.174599   51.076279
H   87.775543    5.297553   27.217491
H   42.755371   12.641355   84.196068
H   57.614246   85.220352   22.574970
H   75.034676   69.228104    9.935903
H    2.310046   76.836342    0.911957
H   76.199448   76.125458   55.880070
H   82.698639   57.035572   83.005363
H   13.836449   28.683586   19.162031
H   81.465622   66.443817   71.612320
H   44.629128   78.298317   67.761475
H   71.293251   96.533691   64.607422
H   58.181595   65.417900   88.450287
H   21.725197   66.204788   86.480110
H   53.842999   42.174835   18.463650
H   95.697311    6.288055    0.008367
H   91.346550   50.185223   28.353102
H   66.303337   37.634304   79.587051
H   74.784645   11.855976   71.480103
H   39.684170   79.827538    2.614840
H   28.341640   38.255623   62.808647
H   64.002525   34.990139   88.059837
H   90.175156   65.393044   77.481377
H   34.310265   94.540817   57.003269
H   14.644651   85.379166   59.276318
H   16.869522   12.610408   30.685455
H   84.129662   51.948509   87.278862
H   45.182304   54.317154   36.262451
H    6.109610   40.757622   79.829803
H   88.451775   44.709801   24.333258
H   57.478996    0.300795   30.173660
H   86.591415   42.952477   76.599495
H    8.626349   49.748989   49.711761
H   82.171989   14.046112   66.675217
H   45.027020   69.901260   53.716484
H   89.808533   16.789989    6.811900
H   56.910358   95.872261   52.137726
H   47.530983   84.697372   61.037144
H   14.936568   46.635162   41.632645
H   61.902916   29.682833   74.410400
H   26.101427   98.579330   52.247169
H    8.214545   64.041679   16.675629
H   31.025278   16.761791   90.070641
