100
TIME:    0.049, STEP:    49
H   14.008933   17.527649   99.101151
H   99.907158    7.401452   81.091431
H   80.606323   77.429146   22.764526
H   81.484833   30.632128   37.477432
H   94.732162   76.685089   64.376717
H   27.256504    1.160321   83.598259
H   50.401554   64.647743   94.284348
H   16.034994   92.841492    3.694382
H   52.423485   81.582184   97.002129
H   73.501518   17.090885    9.607378
H   95.697174   68.214142   35.029739
H   53.971821   26.146599   89.441536
H   40.145370   58.742828   20.258945
H   52.655888    4.926188   60.970146
H   81.099052   65.644180   48.417820
H   99.551636    7.452566   28.972874
H   20.126402   85.237556   77.816078
H    2.191925   92.317642   97.847458
H   46.027306   80.409378   65.942520
H   91.323006    4.505003   19.530893
H   61.368820   51.339905   55.911140
H   67.046242   44.164612   15.083084
H   85.089806   94.223701   30.949230
H   14.488941   37.269444    3.435011
H   27.830107   82.286705   36.920059
H   46.428837   26.154881   84.577415
H   57.854259   40.440517    0.938722
H   28.405991   58.726330   68.395981
H   12.236516   53.537502   54.855835
H    2.872968   89.626907   87.284264
H   18.029268   26.436304    5.534566
H   68.851257   51.156235   94.727928
H   73.810120   64.897148    2.211262
H   80.172478   69.232147   69.687141
H   79.553856   55.216171   27.712418
H   76.815453   88.335136   20.475729
H   84.500175    2.739191   12.325212
H   61.962959   58.057407   25.899401
H   48.518353   79.461983   37.430489
H   58.577396    7.595608   41.889389
H   31.892956   57.860302   43.492306
H   27.217331   14.055611    5.102498
H   11.663861   63.793774    5.012938
H   76.230682   13.593057   85.522354
H   52.404465   29.958633   60.300392
H   77.325630   64.125298   83.510445
H   36.597462   28.383785   28.041937
H   56.242031   95.886322   71.609787
H   66.459404   28.390995   42.519905
H   26.917471   31.495205   80.237564
H   43.534969   64.914406   53.943790
H    7.514775   59.192886   70.846115
H    9.895849   22.292847    0.023570
H   75.549667    6.402855   33.977924
H   36.858887   62.801365    0.821975
H   93.627548   12.480930   90.958725
H   99.359047   88.132927   60.647758
H   22.411421   72.259041   12.292866
H   94.142113   40.839432    7.721305
H   55.789894   31.554121   62.205658
H   62.791733   76.291367   10.575936
H   97.172028   27.489273   93.136917
H   77.557213    3.811742   30.196503
H   46.404366   42.061028   25.810560
H   34.266266   56.931469    0.124081
H   98.335365   39.837238   49.083126
H   83.637016   50.055630   69.428024
H   76.980949   20.339600   68.545082
H   59.346085   46.265495   57.160465
H   31.379414   50.608955    1.627726
H   20.476961   92.070259   61.559727
H   69.925926   49.899315   60.210217
H    3.796466   15.883389   60.493267
H   29.112434   46.279423    0.296397
H   64.532516   28.713419    5.112214
H   26.816168   10.712603   92.632858
H   71.404572   22.297176   91.898743
H   34.282440   47.516056   17.146072
H   63.903343   53.356159   18.234821
H   97.122391    6.285132   16.699640
H   11.841047   29.787771   82.917374
H   45.000782   44.547562   82.683167
H   20.896324    8.075212   34.566772
H   53.541351   16.354588   58.954597
H   49.945290   45.820786   43.002205
H   50.171696   10.848174   45.187855
H   70.427315   99.790215   25.879711
H   56.743973    1.371105   95.228630
H   56.700142   91.444313   27.800159
H   62.002510    7.271017   25.963530
H   26.027864   76.076553   34.496532
H   81.912132   99.192055   34.458679
H   88.428215   29.099630   22.705496
H   51.964447   16.204401   30.122875
H   55.744526   45.340977   17.213417
H   97.968750   93.796684   64.917992
H   58.712883   70.492409   34.370842
H    7.045323   16.654877   55.251122
H    6.377756   37.061512   40.947079
H   42.284588   77.443977   92.966415
