100
TIME:    3.232, STEP:  3232
H   98.755768   25.630363   96.187027
H   11.366053   79.979263   81.873611
H   35.309914    6.427401   85.401253
H   82.019089   99.490776   63.007854
H   66.222321   31.816555   78.072159
H   77.903572   97.706627   98.821281
H   83.580864   79.578117   43.199547
H   65.857468   68.210098   11.441872
H   74.179207   75.549728   96.643532
H   86.519402   62.790092   34.251831
H   99.622269   96.289261   28.427206
H   32.484390   85.694260   62.871696
H   37.674904   66.166870    3.894897
H   95.051598   95.113930    3.195772
H   19.814056   81.332199   95.412453
H   71.572601   29.046661   64.757179
H   64.208931   95.743073   67.610062
H   70.209190   37.528603   87.495789
H   95.607170   13.938624   33.636417
H    5.445099   37.180401   36.382195
H   72.485260   34.461693   69.518616
H   72.235336   48.374512   44.043610
H   42.592171   68.336571   39.879807
H   18.753723   75.444458   67.038246
H   13.989600   29.845573   60.408852
H   31.839270   31.307158   86.235725
H   83.380142    8.125804   64.101967
H   59.834202    7.298523   73.605888
H   81.447281   42.324051    4.394514
H   24.922199   10.848037   40.322937
H   43.255108   11.875562   53.673393
H   69.827675   63.211792    0.061654
H   98.014618   32.013252   88.961037
H   14.660666   77.529274   35.591202
H    0.431518   14.605861   21.534966
H   53.564205   38.375469    9.530015
H   89.789894   86.172348   63.134274
H   30.407196   99.799690   50.513920
H    8.647672   10.997942   31.107046
H   58.774364    9.613881   92.321205
H   14.367605   67.079117   18.490217
H   41.147423   56.913803   54.643082
H   39.079945   82.881287   34.924572
H   72.974152   66.940277   96.742027
H   76.302956    4.374510   32.682308
H   36.390377   24.562244   96.291969
H   66.984665    0.604191   56.486916
H   56.412022   28.659746   68.555779
H   59.501770   64.774162   15.547748
H   93.664391   79.934517   57.613033
H   43.298038   57.614868   87.494522
H   62.201740   63.834763   61.888508
H   75.920082   40.748962   15.159355
H    1.850430   54.476173   74.435944
H   83.456375   41.828529   27.837076
H   97.610184    9.135000   82.601898
H    1.147546   96.288475   63.377541
H   85.395012   71.665039   30.307686
H   45.177185   75.328445   63.362049
H   45.739494   76.210754   71.684822
H   63.577766   28.269604   62.402454
H   84.204613   97.859085   49.117851
H   93.480644   86.736992   11.842545
H   64.976433   59.375778   39.392628
H   60.607952    2.708974   96.550804
H    2.798411   81.600594   37.284866
H   28.259472   60.098881   23.103586
H   57.109444    2.378127   20.710890
H   17.983818   17.555412   57.528393
H   95.866516   10.702312   94.927460
H   19.401691   75.494362   23.378746
H    7.474444   44.261414   93.253510
H   96.258560   58.436764   78.879875
H   59.065845   44.852440   11.121178
H   17.999712   33.245785   46.405796
H    2.061663   14.713140   78.456390
H   60.400494   46.418755   48.209080
H   83.825562   39.388050   92.930527
H   16.499784   44.025326   53.742584
H   41.022041   32.931774   42.481461
H   74.126083   62.718182   73.157944
H   83.824997   65.334976   16.519655
H   22.287397   61.204834   37.731846
H   72.505722   88.727997   68.222717
H   94.957199   46.721737   34.446190
H   76.908264   27.770359   66.223083
H   83.012688   68.360191   77.657501
H    7.982088   46.532562   62.130775
H   22.756710   14.219870    1.757781
H   80.586609   76.303055   39.753647
H   56.289368   47.949741    1.715686
H   17.427652   38.570229   95.109184
H   92.632172   24.492781   68.939964
H   59.613735    9.276913   44.735451
H    0.709640   60.227703   90.355461
H   60.871536   68.103157    0.511728
H    6.061692   53.158382   51.314445
H   18.730505   43.756226    4.321606
H   54.748375   50.782177   74.323479
H   39.962467   95.696419   86.390884
