100
TIME:    1.324, STEP:  1324
H   27.785311    0.603859   97.933853
H   64.440773   76.531151   61.517757
H    2.513397   69.157967    7.793921
H   81.698837   78.100914   67.591789
H   83.312103   78.881966   29.805260
H    7.485373   99.773705    9.865484
H   83.579231   50.741306   93.991295
H   15.822510    3.145513   86.628685
H   21.081551   58.996201   16.745630
H   38.657692   35.394035   59.538521
H   77.099777   19.516254   12.215441
H    5.305248   90.056129   98.685799
H   59.041519   81.603447   93.534325
H   89.525169    0.995149   57.998112
H   96.604652   51.760296   87.128952
H   48.289429   95.929131   23.137192
H   17.619572   69.555222   93.902779
H   29.437576   30.314697   53.645798
H   65.882011   33.897034   33.115803
H   56.845459   77.697128    6.476685
H   85.708603   24.408859   21.308998
H   89.301506   45.847466    6.518365
H   68.066719   83.854210   94.468124
H   96.027550   52.561039    8.741962
H   82.230461   81.169502   46.331070
H   40.588093   88.158066   65.073257
H   47.909157   87.440140   26.239553
H   20.826469   18.239544   10.536452
H   39.960159   69.215637   94.586815
H   51.761028   58.070969   88.643120
H   68.184151   40.774353    4.642507
H   49.355289   15.933032   76.694771
H   63.619785   71.612206   17.073332
H   34.043968   52.385994   15.973457
H   47.861732   58.835915    5.351943
H   87.671173   88.490799   16.088636
H    6.788202   56.048683   12.791221
H    9.268900   34.721188   15.873070
H   91.197983   52.244499   15.227319
H   38.487488   88.234749   42.203831
H   44.759918    1.612921   73.537399
H   12.627617   71.281044   65.003860
H   22.645224   71.439575   97.107643
H   94.813484   34.960136   10.188087
H   41.808220   79.651749   69.408401
H   61.006069   88.170052   88.547707
H   50.060291   97.162094   38.936714
H   56.310123    9.015230   50.499538
H    3.734207   22.795837   91.658859
H   53.658306   50.901524   91.062950
H   43.443607   41.820183   67.376907
H   69.476891   40.881763   87.143539
H   36.344299   29.685730   25.973404
H   46.030575   85.603249   90.241653
H   35.356461   74.574448   11.641184
H   95.222855   11.140486   47.554718
H   80.187164   51.343605   81.910805
H   27.470165   51.852379   79.451981
H   94.698616   94.710205    9.838753
H   71.647400   29.554930   25.951866
H   43.219982   17.000374   11.166950
H   51.919800   15.621672   35.448158
H   64.040329   16.866531   42.726662
H   33.955704   48.996719   91.192940
H   84.874321   55.099178   18.862383
H   20.009712   76.453133   24.470564
H   81.341354   94.137482   30.985832
H   88.907921   93.257553   29.497458
H   22.889694   54.652130   77.194099
H   57.205986   14.736050   98.945160
H   79.988960    5.315527   46.268131
H   64.796158    7.584301   53.559479
H   20.664604   52.814602   27.799213
H    1.049903   65.595703   24.519341
H   26.007637   30.527594    1.765626
H   56.961620   92.428490    6.841800
H   87.165672   11.791216   14.461735
H   94.184250   64.149117   87.559402
H   25.015200   49.623875   32.451683
H   34.594162   36.846115    6.857429
H   36.791622   42.979046   59.120876
H   40.664120   52.874283   76.065262
H    1.571381   29.354975   56.004307
H   41.249683   25.457987   42.497231
H   87.861237   66.068542   19.405373
H   20.818401   57.689281   33.725960
H   55.581688    7.087349   86.676453
H   77.268951   99.292145   81.979805
H   83.158882   20.453970   17.367439
H   49.279129   54.803940   71.545845
H   78.206062   44.923428   61.422192
H   76.249550   95.083916   58.748192
H   70.234428   67.300644   21.343241
H   75.197884   93.542870   16.089584
H   33.702061   31.133797   46.510124
H    3.278555   43.447258   99.062408
H   57.509354   43.661999   61.044678
H   11.726424   27.510742   34.852600
H   45.639641   42.557537   34.145733
H   21.466293   44.695553   70.165718
