100
TIME:    7.737, STEP:  7737
H   94.100822   12.501296   92.062576
H   86.799973   24.120274   65.949234
H   12.762888   30.534195   32.519085
H   82.775238   13.885864   16.070976
H   25.868834   92.912010   55.923111
H    8.036323   92.826027   44.967323
H   47.473324   83.777023   95.496628
H   11.773354   57.949802   97.807533
H   63.437645   42.412445   13.069916
H   63.434822   27.476854   10.653477
H   80.578140   77.557648   94.482681
H   60.543617   11.506302   42.200554
H   50.386955   93.675903   56.224392
H   71.991310   81.228279   46.029819
H   74.579597   78.925858   78.828888
H   90.434677   35.022766   90.802032
H    1.943442   93.713821   77.717987
H   66.519287   18.356369   31.323563
H   65.767593    2.928236   70.975845
H   84.068436   41.508854   43.103523
H    5.152161   85.974426   47.246876
H    4.134064   54.354965   60.401260
H   82.442101   31.697844   10.985051
H    0.178671   29.385225   32.456566
H   52.864449   72.578033   93.679420
H   11.126751   98.016708   62.797318
H   94.908569   20.858477   53.484470
H   79.715782   17.576696   22.515924
H   79.404305   51.052998   91.440544
H   97.664795   99.348343   98.458366
H   20.554541   15.847706   97.252266
H   54.276150   38.745731   83.011238
H   15.340481    2.407087   94.807014
H    5.007977   64.672829   45.803238
H   88.403008   73.870567   95.776428
H   45.201633   91.423538   95.102089
H   21.878307   21.189913   18.110502
H   44.207382   17.359974   68.418877
H   18.489971   12.841299   94.539894
H   34.454750   87.871262   46.765968
H    6.482818   21.658598   24.624846
H   48.181770   71.943802   74.946770
H   77.871857    9.899828   60.323940
H   85.310059   42.507652   37.218304
H   85.528160   26.630230   18.186058
H   78.253838   10.486522   14.593683
H    2.181304   45.602913   99.730873
H   56.659847   75.058578   47.299252
H   91.191597   91.672188   35.841705
H   88.179932   48.495525   42.561478
H   42.970333   22.686277   34.985764
H   81.146545   45.802853   66.150940
H   69.361229   66.870483   53.518013
H   97.523529   80.968597   73.228958
H   24.763706   36.638504   66.156296
H    3.232183    4.395150   29.241058
H   86.744186   66.298546   91.840446
H   49.942551   46.223412   14.267262
H    0.474612   65.685188   17.516453
H   48.455849   22.479427   43.551903
H   47.756786   18.765629   11.159274
H   24.316689   55.927170   45.280090
H   99.324974   79.323883    2.921143
H   74.326530   83.909775   17.078411
H   39.417641   42.903164   16.082083
H   26.051487   57.644127    3.655781
H   66.814484   15.851105   40.605145
H   45.918312   60.024773   36.075943
H   42.513771   93.854866   74.982330
H   87.159203   37.253529   85.433548
H   76.347542   68.976700   69.341530
H   36.144405   94.700584   23.165522
H    2.523721   35.608852   63.375965
H   59.883640   59.743618   43.446869
H   35.169571   39.707516   87.926315
H    8.562613    3.441438   75.326698
H   69.467491   56.144394   27.957769
H   95.478653   44.818523   41.725735
H   32.530388   30.792713    4.001244
H   20.095425   87.548058   54.371712
H   62.279594    9.325173   42.412827
H   21.875118   94.646210   39.726788
H    7.256853   36.508091   66.776764
H   82.442223   74.230957   56.760975
H   75.602448   64.923607   97.737740
H   73.226181   93.246628   79.063904
H   83.891518   40.809547   92.473289
H   80.461266   85.951782   15.357292
H   16.248573   63.388405   64.912117
H   82.284271   90.953995    0.797270
H   40.652637   91.207542   96.853073
H   50.758549   77.375854   80.946571
H   81.410172   59.669147   17.318666
H   95.017433   82.567711   48.492779
H   22.824108   56.697144   93.875183
H   32.966095   90.206787   67.822777
H   48.475456   11.690179   92.226479
H   23.343119   69.284798   23.561338
H   40.140099   70.212440   96.981712
H   19.786646   80.088882   52.411144
