100
TIME:    4.716, STEP:  4716
H   98.399086   89.540169   94.828384
H   70.230965   60.418472   75.465454
H   60.818428   13.192035   67.987984
H   82.268173   38.351860   81.663460
H   52.930267   50.765701   37.833694
H   54.892742   96.098900   45.787716
H    5.805473   79.784897   59.250347
H   49.217995   96.596466   75.186958
H   37.699654   32.869308    3.230846
H   45.963921   84.098137   92.362244
H   61.584198   56.000996   85.480331
H   75.845177   60.079338   57.238869
H   43.129349   76.404182   56.416504
H   21.572483   90.539833   16.129290
H   37.865181   48.775085   24.078011
H   11.903641   99.250320   41.572205
H   44.874519   93.898056    2.704435
H    1.916549   65.351524   36.044872
H   18.721687   76.196198   11.820299
H   65.457268    5.666483   37.419807
H   84.422600   86.724518   29.244247
H   14.507858   50.344543   17.667282
H   22.778633   56.267296   97.419022
H   80.873978   93.242676   56.822701
H   60.912750   12.156616   71.368568
H   25.048132   87.239319   46.946644
H   55.413628   46.439236   93.539223
H   34.619633   76.566650   22.657190
H   13.716161   76.964500   34.243568
H   81.825974   74.118584   58.296944
H    1.658347   44.948139   36.264030
H   63.528332   22.214752   62.680305
H    2.545347   23.437086   22.651480
H   77.363525   41.529419   73.073753
H   63.544327    2.426559   11.900543
H   82.591660   54.806141    4.600757
H   32.125092   31.826626   80.067734
H   69.069374   72.649483   55.235516
H   46.009686   78.664177   87.297089
H   18.999296   70.687859    9.078997
H   12.946697   18.001753   53.452618
H    7.773496   23.514074   24.362047
H   51.862507   91.780396   42.115326
H   78.210648   91.803436   41.840919
H   47.577244   45.821205   59.671528
H   17.244839   52.867298    2.318906
H   78.578415   81.309654   70.735985
H   56.491276   43.943237   60.377281
H    2.885911   41.870174   56.352570
H   24.786312    2.511885   53.820061
H   43.184818   14.344067    3.140991
H   34.320503   26.129450   64.466736
H    6.695395   49.353699   28.970701
H   67.477379   30.258369   39.919762
H   65.300049   71.888435   40.459263
H   99.466995    7.572948   32.083038
H   95.226425   53.468590    4.518240
H   74.892471   31.519991   92.081161
H   62.216415   38.032135   49.433708
H   47.810711   90.275146   29.476326
H   57.189697   59.254589   46.698814
H   31.534620   84.046219   81.970520
H   94.229408   85.471481   10.080193
H   66.880043   67.453217   99.097809
H   19.507814   84.185211   34.750019
H   11.634186    7.826601   25.030050
H    9.194731   11.407750   94.750046
H   54.599419   87.249893   91.654671
H   91.946304   10.924637   64.454834
H   25.932833   85.343750   91.802582
H   72.278069   74.523224    5.575060
H   85.111237   95.009918    1.904767
H   99.498779   85.033791   40.830986
H   26.390842   50.942417   22.944542
H   89.548714   35.363003   58.902920
H   37.147682    9.823664   78.601974
H   95.136948   17.794453   74.453529
H   53.546581   42.352978   74.887703
H   87.662453   39.666348   70.302391
H   68.243622   52.111118   14.633507
H    3.156801   78.070847   61.853100
H   95.171883   75.026627   92.428123
H   16.171534   85.987488   79.072174
H   74.602386   15.717220   32.683174
H   22.699327   53.897331   90.589180
H   42.754002   82.281654   69.276535
H   82.125694   60.461304   48.420654
H   31.865892   27.719877   46.698860
H   53.554306   31.592306   89.620003
H   49.381290   15.245674   92.803467
H   17.020866   28.082649   33.055096
H   27.235132   50.167358   23.387926
H   87.758339   69.023567   83.700058
H    3.046446   99.292435   44.793926
H   75.053810   27.298988   24.454655
H   83.443832    9.502234   23.861626
H   88.268700   38.322094   65.967453
H   24.176397   56.391602   80.569527
H   84.053833   57.179119   50.023224
H   32.139835   57.611042   43.433292
