100
TIME:    7.235, STEP:  7235
H   28.048395   58.536629   92.522171
H    0.664328   96.916954   34.294880
H    4.133782   94.419304   38.413387
H   82.690979   34.569305   43.588100
H   30.367117   52.674496   69.534775
H   15.821666   93.369881   95.252243
H   73.782715   49.880314   56.239574
H   51.229561   14.521897   43.900543
H   75.777763   90.677551   44.669735
H   77.146065   20.268877   90.997261
H   27.272949   57.358463   42.837563
H   79.701752   86.343918   77.934044
H   82.397728   24.060238    6.112521
H   96.847725   82.775581    7.826008
H   68.482307   23.766960    2.972514
H   10.619415   78.929382   32.473145
H   42.311501   60.508503   32.018948
H   55.784817   42.783829   48.723129
H   57.949787   81.870667   44.528988
H   97.595840   52.167622    8.924997
H   34.941559   35.950394   60.870029
H   56.006836   53.688553    3.151203
H   89.144524   35.780434   25.348967
H   46.822418   23.379854   69.740601
H   70.819283   12.387794   89.972023
H   13.493664   12.813984   10.036689
H   38.196712   41.726883   43.522755
H   22.073730   94.145058    5.922060
H   68.488930    5.508055   15.169878
H   78.415436   11.773623   58.550224
H    0.797007   70.831345   36.968834
H   22.579433   52.614002   29.483849
H   79.981087   39.134895   49.582893
H   83.797447   10.678105   66.952255
H    0.896367   11.878975   65.236359
H    1.564202   52.105209   96.680031
H   73.729050   39.574829   78.555084
H   64.954430   26.548038   32.995132
H   39.681118   23.777739   43.186798
H   81.736992   34.866688    7.268830
H   40.790161    4.435186   12.798201
H   90.487465   69.975204   49.318897
H   73.551666    6.888525   24.065746
H   17.365101   34.081749   88.135490
H   29.073479   46.434933   75.228462
H   84.734123    0.913257   12.554232
H   98.258102   18.302025   94.912788
H   56.629208   69.888138   16.238308
H   76.515205   33.247196   55.868546
H   77.639893   40.854763   77.661537
H   43.004803   71.150909   29.693600
H   56.749722   92.384277   99.103882
H   58.949551   63.959717   82.671638
H    9.148254   89.157043   51.076492
H   64.733475   92.645485   61.887829
H    2.606943    4.923205   46.330322
H   54.918346   80.783440   44.096214
H   87.322922   93.630608   27.198980
H   60.885010   44.471363   56.054192
H   81.583168   83.894302   57.829979
H   16.089746   42.110298   50.297714
H   42.133644   60.599716   67.994888
H   65.246025   13.579398   37.344788
H   39.854244   81.175186   30.709225
H   19.491581   82.997162   69.332985
H   56.889923   82.600121   73.973511
H    7.090578   98.496155   16.367949
H   80.594734   31.315378   12.077437
H   17.492668   29.925369    6.465184
H   76.963875   12.040667   86.498276
H   92.287819    3.132329   75.362221
H   77.482338   11.369302   86.368843
H   35.256165   60.438457   76.244934
H   70.935463   91.516418   73.274567
H   10.988893   38.968334   49.864216
H   96.695091   71.269554    9.106227
H   23.875351   99.592110   19.055037
H   71.893784   77.642052   14.000751
H    8.458812   32.267246   98.399757
H   44.713455   14.894601   97.619576
H   52.451927    4.131753   12.408835
H   84.205086   91.390747   81.723869
H   75.505806   28.112829   18.967644
H   47.905460   31.274136    2.612412
H    0.045225   96.329247   46.400215
H   84.777328   74.809219   44.203644
H   50.364079   77.309029   68.536064
H   72.387718   26.121607   20.562202
H    5.829278   91.339424   69.017830
H   26.667280   11.607273   82.850204
H   20.108753   64.099113   86.251755
H   13.615633   39.620148   71.379341
H   49.230885   44.605930   78.498238
H   46.500931   52.111900   14.643725
H   31.504704    1.661581   82.339355
H   91.502899   10.030002   93.751579
H   88.322319   82.881638   21.097557
H   24.312098   44.446720   33.639557
H   64.054344   68.044685   39.030506
H   88.605110   92.972855    0.769141
