100
TIME:    8.145, STEP:  8145
H   66.509026   75.085869   91.689041
H   75.531662   46.230442   91.673355
H   19.776011   59.887756   27.729885
H   82.843719   97.075493   93.707100
H   22.212858   25.614918   44.860245
H    1.708788   92.384010   85.372841
H   26.091118   11.326488   27.402775
H   79.705353   93.248344   60.347878
H   53.408226    3.184094   87.388489
H   52.291023   33.335133   26.629887
H   42.626968   93.974518   55.181259
H   44.970314   31.957180   13.159206
H   24.370232   68.979004   15.679636
H   51.789284   79.970711   77.078621
H   79.535164   42.481277   59.206604
H   74.030258   99.337364   56.934845
H   69.134560   20.699703   14.859838
H   75.241333   98.503456   17.180588
H   72.123917   20.045368   92.472794
H   73.074051   32.845951   70.882088
H   80.940880   45.357273   36.174671
H   43.249424   54.896591   25.656265
H   76.994713   28.381163   99.311340
H   62.270927   34.266083    2.154779
H   38.271675   40.221375   96.692604
H    9.203045   85.988876   24.401325
H   59.727402    3.897961   61.580845
H   45.289986   36.620762   36.002563
H   88.275764   88.070328   72.153679
H   13.308983   89.250443   30.892265
H   36.612331   52.433044   64.972603
H   80.037621   27.474308   45.240608
H   44.080013   72.555504   31.562880
H   22.247684   27.281960   28.614702
H   78.249077   42.979210   20.600012
H   80.668793   23.380632   93.819618
H   61.009632    6.246950   50.259426
H   27.344952    9.893021   97.212212
H    1.267429    3.952719   55.001198
H   96.025726   49.676125   78.866760
H   78.598694   35.656830   34.237148
H   13.797809   73.543777   95.777580
H   81.383087   12.347261   89.795479
H   59.257030   49.356606   77.109772
H   50.136848   10.533794   53.100159
H   72.986992   18.266949   16.251245
H    5.370749   67.790901    3.649115
H   56.684750   79.260849   72.543999
H    3.119096   57.880272   19.566101
H   96.746338   54.705547   14.033656
H   42.942318   83.296104   39.287643
H    0.975094    7.942941   39.368469
H   77.821800   69.236206   29.823290
H   88.073090   74.313446   91.233353
H   92.277504   72.394424   69.623947
H    3.740347    3.965974   15.351776
H   12.610333   54.525963   30.644829
H   19.562330    7.692281    3.757691
H   32.653210   82.923836   86.194656
H   21.533302   53.840816   31.947411
H   73.493362   99.792236   79.347359
H    9.835976   52.129562   26.818554
H   27.024216   51.483063   74.943359
H    2.341829   86.132309    6.000613
H   55.613503   10.316208   54.077484
H    0.988811   37.361168   27.780323
H   34.080353   29.956718   60.302898
H   17.735085   83.358269   55.580704
H   62.849648   64.538582   49.393394
H   95.445457   57.745045   84.568192
H   63.391949   41.215981   64.448219
H    2.546968   81.153709   53.070583
H   75.921753   15.427336   52.913868
H   50.903233   33.923000   19.205259
H   54.823746   40.308285   18.860876
H   18.208559   29.590523   47.873695
H    6.522381   20.829758   35.194145
H   14.645614   18.141888   64.259277
H   52.094292   29.594288    8.554482
H    0.087452   65.322716   19.222054
H   70.267021   13.546121   66.798447
H   52.489952   97.292084    5.593835
H   33.063538   43.331333    5.631040
H   10.512803    9.144251   19.497730
H   55.736603   39.401707   58.186592
H   63.837940    8.232471    7.396722
H   11.140992   11.144503   11.928368
H   87.023033   53.303787   11.127007
H   24.716927   40.671242   61.575203
H   46.211689   74.169815   15.381668
H   57.349659   13.238461    5.469512
H   80.946419    8.061481   88.722328
H    7.563741   71.909752   48.869934
H   34.448761    7.320557   76.003639
H   15.768963   20.149841    3.250642
H   66.665192   74.094971   46.749168
H   16.090723   35.103401   68.762245
H   22.555582   89.474373   15.370024
H   20.703819   71.974281   62.809361
H   45.127895   69.617447   13.105966
