100
TIME:    3.823, STEP:  3823
H   58.788239   71.432770   95.645950
H   94.925819   12.021002   19.153334
H   45.468628   48.945656   78.466454
H   82.118286   75.142326   30.610987
H   60.928787   79.187813   62.047272
H   68.741341   97.066353   57.351227
H   52.605885   19.484379   89.416512
H   19.406036   19.340427   57.179615
H   59.651299   18.727661   59.443958
H   70.368263   71.275978   57.396385
H   44.648880   20.068974   71.498070
H    9.926003   15.317633   20.803587
H    0.082054   30.410721   45.153664
H   65.788368   93.292305   48.172764
H   27.003613   28.541302   67.005928
H   47.810318   77.355461   15.698812
H   16.684364   34.832287   21.411123
H   82.834312    8.788131   67.007019
H    4.813043   38.733459   64.770981
H   89.520958   24.630606   76.620262
H   37.414474   75.626038   53.478653
H   28.895081   49.159073   93.714539
H   34.701469   63.530006   22.969955
H   63.843376   82.532562   23.143711
H   92.852325   82.976440   64.773537
H   29.127123   13.697515   30.841146
H   32.416943   83.559952   75.825294
H    9.968617   34.884415   93.138756
H   94.297852   95.944748   76.457222
H   47.583588   96.220116   87.306427
H   66.516411   64.870354    6.915352
H    7.143792   46.884804   45.349785
H   39.644436   88.773781   42.202988
H   39.632858   23.367500   10.694588
H   85.741241   69.930595   57.521072
H    4.956594   84.802338    7.490560
H   46.474190   64.529282    9.702718
H    5.981631   88.987175   92.220451
H   83.702728   98.122246   73.835243
H    3.109936   54.287415   38.819942
H   73.976929   87.360474   32.413921
H   88.031662   83.436783   82.409332
H   44.170574   86.425339   77.612450
H   35.234055   76.841980   54.526123
H   25.039064   81.054779   83.254944
H   28.765705   35.834675   98.690742
H   71.601852   32.746239   62.163712
H   56.443584   34.745621    5.123495
H   76.778976   15.829201   91.972656
H    6.057239   88.925407   16.279285
H   43.252949    0.557108   93.725922
H   90.923889    8.993080   23.088802
H   88.175468   44.175781   80.836037
H   88.161797   44.831482    0.515799
H   36.400742   93.625671   32.862713
H   98.349655    8.512762   62.482864
H   38.613041   79.235542   19.586691
H   41.387444   15.852333   15.083210
H   91.789116    0.299152   17.988960
H    6.741126   21.636282   54.875374
H    0.857976    0.786059   16.325268
H   63.228874   92.358139   22.375137
H   33.603481   46.408745   71.315880
H    5.557543   62.590675   23.345196
H   84.064278   55.508076   51.588627
H   66.492226   52.220131   72.229401
H   80.841843   80.532684   51.637066
H   16.285210   36.179276   48.964108
H   47.440933   75.089935   20.460133
H    7.840780   40.428551   93.682983
H    0.634018   35.283348   16.288387
H   58.742416   24.647385   36.523769
H   57.724884   29.205097   63.729645
H   46.053295    7.451987   76.004570
H   46.493015   34.088963   91.206947
H   16.034044   52.591988   38.690128
H   14.058218   95.194138   58.660877
H   11.591823    0.743392   25.569544
H   44.838676   42.289371   60.339211
H   12.038214    0.744388   91.566429
H   85.687088   68.832352    8.480933
H   28.168709   69.194656   67.100586
H   59.680302   71.070465   94.021851
H   13.166903   39.301704   14.245423
H   66.180939    9.752865   77.155487
H   63.308971   49.480621    7.263921
H   22.484259   25.389687    5.838731
H   17.493765   99.215813   55.985046
H   35.022812   81.313911   96.923592
H   28.333719   51.988449   60.878181
H   80.475494   79.861977   14.196572
H   61.159424   83.013237    6.371722
H   30.515186   42.226570   14.642984
H   16.734806   45.126320   84.583565
H   90.492180    7.287868    3.936154
H    9.685760   44.764717   69.985970
H   59.150513   87.074867   17.324839
H   20.899321   48.788239   94.863304
H   26.594353   53.329746   24.820412
H   76.671562   80.528236   29.457964
