100
TIME:    7.937, STEP:  7937
H   80.575432   94.160576   91.879471
H   81.276291   34.958591   78.559097
H   16.200693   44.923157   30.171352
H   82.808807    5.645355    5.107970
H   24.076689    8.942800   50.500137
H    4.934592   92.609352   64.774696
H   36.992062   97.281052   11.136906
H   96.053741   75.252739   79.445107
H   58.521263   23.182968    0.480565
H   57.972176   30.348558   18.485050
H   61.974625   85.605133   75.216934
H   52.909645   21.531155   27.964321
H   37.633659   81.569580   36.349819
H   62.088356   80.611824   61.250462
H   77.008797   61.060867   69.209747
H   82.393295   17.530090   74.200470
H   85.860634    6.942499   95.924774
H   70.794800    8.624603   24.390732
H   68.883438   11.318929   81.513565
H   78.679031   37.262333   56.720467
H   93.283897   66.064758   41.819324
H   23.308260   54.620468   43.369400
H   79.771812   30.072020    5.262624
H   81.596512   31.777803   17.602875
H   45.711128   56.717346   95.156471
H   10.183758   92.120712   43.975601
H   77.663086   12.544566   57.453281
H   62.839668   26.912024   29.126795
H   83.753059   69.198746   81.986198
H    5.333550   94.398392   14.357414
H   28.425787   33.782043   81.428902
H   66.904320   33.220524   64.496223
H   29.428175   87.774010   12.824597
H   13.458676   46.343971   37.377335
H   83.425591   58.727745    7.944623
H   62.587498    7.088578   94.473427
H   41.060535   13.864931   33.869778
H   35.941696   13.699631   82.533257
H   10.047553    8.484152   75.158180
H   15.617111   69.148727   62.502357
H   92.814270   28.520475   29.336760
H   31.326912   72.728104   85.157951
H   79.593048   11.099550   74.770576
H   72.538452   45.864586   56.772442
H   68.178917   18.739910   35.300934
H   75.672050   14.300456   15.406214
H    3.744757   56.479378    1.651488
H   56.672054   77.118515   59.674129
H   97.038765   75.107246   27.863281
H   92.379150   51.539654   28.576984
H   42.956600    3.377043   37.094528
H   90.866394   27.243784   53.022278
H   73.508568   68.030151   41.903023
H   92.890961   77.706268   82.054642
H    8.838871   54.166275   67.856125
H    3.481283    4.184770   22.432587
H   99.424240   60.527672   10.862254
H   35.049973   27.335894    9.115514
H   16.248455   74.135506    2.162296
H   35.258522   37.852657   37.863426
H   60.372753    9.464903   95.565620
H   17.218300   54.065598   36.230103
H   12.903060   65.676422   89.206543
H   88.059441   84.999252   11.648114
H   47.356789   26.928980   34.707611
H   13.765873   47.701500   15.481723
H   50.768341   22.765617   50.260906
H   32.103004   71.462761   45.637100
H   52.482338   79.484138   62.439415
H   91.221092   47.298389   85.009354
H   69.996834   55.368912   66.942848
H   19.675022   88.059959   37.825100
H   89.483521   25.716093   58.247486
H   55.481480   47.086452   31.563353
H   44.803970   40.002010    3.090442
H   13.290931   16.259651   61.868690
H   87.631554   38.833298   31.504675
H    4.874523   31.741741   52.771572
H   42.120537   30.205250    6.233223
H   10.287616   76.653282   37.141487
H   66.195000   11.394265   54.366562
H   36.882652   95.943207   22.995113
H   19.907164   39.852818   85.822784
H   96.202599   91.345215   38.494678
H   65.864288   52.412815   78.349922
H   68.624130    0.592271   92.952454
H   97.249062   26.267921    2.010055
H   83.677818   69.948364   13.283623
H   20.399727   52.252541   63.276375
H   64.602386   82.726456    7.946578
H   48.837452    2.007492    1.076746
H   65.556526   92.417969   84.758217
H   94.230606   65.670006   32.784973
H   14.346624   94.701500   61.978497
H   19.365704   38.781799   98.471130
H   49.485260   82.308838   57.492577
H   32.600212   23.167221   80.724403
H   22.957071   79.181648   19.545988
H   30.612511   71.076088   80.230614
H   32.208828   74.955826   33.143871
