100
TIME:    9.609, STEP:  9609
H   67.504547   40.830360   90.348709
H   35.098312   25.561428   83.983452
H   44.940746   65.213844   10.544825
H   83.089447   36.760551   13.460057
H    9.094358   42.960709    5.167091
H   79.011841   90.797951   30.356991
H   49.361576   10.183040   41.889492
H   64.637848   19.902905   25.927063
H   17.420311   62.425781   95.234749
H   12.301699   54.356007   83.951942
H    6.449233   52.879990   14.159742
H   89.091820    5.340124    8.950233
H   31.015717   80.368294   70.191010
H   79.301514   75.458260   88.488945
H   97.316902   11.709572   88.803734
H   15.165745   71.290634   35.410217
H   51.408424   17.532051   48.133530
H    6.549841   27.264809   66.429276
H   94.931900   81.462906   69.601044
H   33.632214    1.755986   70.558006
H   94.064545   99.611092   96.438400
H   83.604538   56.840073    0.983188
H   57.448204   16.480131   57.425964
H   26.242878   51.779755   93.426117
H   85.911972   24.118568    7.500934
H    2.297754   42.830185   86.632317
H   33.483879   43.042553   90.622299
H   21.762423    4.955343   84.395012
H   20.109783   20.895643    2.950112
H   69.444832   53.016800   47.276253
H   94.229576   83.713226   49.145599
H   72.475479   87.025375    9.710777
H   47.203056   65.442215   63.451561
H   84.104889   93.115257   66.939537
H   41.814384   32.133827    9.671515
H    7.931570   38.051746   89.217812
H    1.427546   52.633064   65.616959
H   66.832191   83.105522    0.522619
H   39.473492   72.053490   13.129040
H   58.132282   12.619988   94.050613
H   78.544586   85.890640   68.728355
H   90.419441   79.285385   70.514641
H   93.982208   21.130859   95.541344
H   65.784218   73.936012   20.250706
H   23.144720   52.780766   78.381058
H   54.094170   46.187786   22.198969
H   16.816746   47.411060   17.708094
H   56.774105   94.339584   63.127644
H   45.909355   36.632687   61.169167
H   27.476080   76.995079   11.671207
H   44.786198   42.103279   51.736145
H   72.126373   72.095886   43.265175
H    8.182507   77.724976   44.797188
H   54.165932   50.426849   55.834602
H   75.711861    0.691095   82.066696
H    5.563757    2.425988   65.513748
H    5.421725   12.282919   69.883293
H   10.550216   69.435570   66.049339
H   48.121334   44.785530   73.803047
H   24.924252   66.368973   90.307777
H   65.847565   31.708643   65.208809
H   57.875725   38.502853   60.580330
H   26.417339   51.585281   74.553818
H    2.872205   94.107285   66.258301
H   13.719859   93.387642   90.412651
H   11.053736   64.581749   14.343873
H   16.620407   80.569305   30.985405
H   16.606598   67.086372   25.568375
H   35.813553   59.344879   57.574322
H   25.178772   31.279497   81.463089
H   16.895412   41.601269   46.889870
H   81.989067   32.544334   60.380413
H   80.467422   43.009304   15.373402
H   18.679417   41.266392   32.218819
H   25.345552   42.463985   29.862326
H   52.822632   23.419140   49.364929
H   39.485298   94.116379   61.163078
H   83.420326   22.419838   45.119881
H   22.300428   25.294056   24.894091
H   28.290627   85.571144   93.097389
H   98.927788   28.691874   54.300270
H   62.346321    6.793086   83.114586
H   25.663530   67.814735   45.056087
H   11.233388   34.422562   85.783745
H   84.453278   47.818672   16.269342
H   30.139759   62.010826    9.061368
H    8.918306    4.699339   81.737328
H   10.567329   36.155495   95.950668
H   55.099125   59.158394   49.601570
H   16.773939   13.934944   67.712997
H   17.263205   92.288635   36.386620
H   89.267593   18.168150   16.617228
H    1.409048   15.831938   62.083305
H   73.991615   95.991623   77.705345
H   90.455963   89.013680   36.889259
H   87.585571   16.283503   71.131516
H   99.885490   19.119141   84.565460
H   19.729715   61.912113   85.974998
H   50.962364   78.296181   40.183445
H   36.063171   32.052975   72.075119
