100
TIME:    3.223, STEP:  3223
H   99.364410   26.455711   96.195267
H   11.616421   79.491333   81.305893
H   35.155212    5.779929   85.506859
H   82.017578   99.861565   63.501209
H   66.302933   31.095165   78.316193
H   78.043098   97.716377   97.930016
H   84.052589   78.970436   42.495735
H   66.564850   67.431442   12.268232
H   74.400444   76.415039   97.210014
H   86.765358   62.660866   33.899376
H    0.459427   95.927124   29.294130
H   32.827919   85.243134   63.512337
H   38.247360   66.711380    4.789415
H   95.497231   95.141670    2.510847
H   19.704571   82.136124   95.845039
H   71.934464   29.833832   65.504250
H   64.932655   95.147751   66.790756
H   70.016930   37.966270   87.807800
H   95.466957   13.561038   33.162289
H    5.687553   37.371494   35.769432
H   73.019333   35.357697   69.762924
H   71.372498   48.362564   44.810043
H   42.712334   68.409767   40.137299
H   19.589920   75.336517   67.706627
H   14.311482   30.559341   60.342384
H   31.880571   31.575327   87.079338
H   84.156189    8.499940   63.923412
H   60.593563    6.878433   73.308434
H   81.251587   41.507492    4.819933
H   24.577126   11.070802   39.607452
H   42.900867   11.068530   54.385445
H   69.259407   63.460426    0.894825
H   97.380707   32.671745   88.150246
H   14.280385   78.354073   35.970367
H    0.655250   15.286206   20.986954
H   52.781704   37.668430    9.560948
H   88.926643   86.501938   62.425106
H   30.779152   99.964348   49.878841
H    9.027575   11.194014   31.979189
H   59.622028   10.456447   91.613136
H   14.982668   66.770264   18.278181
H   41.956291   56.509850   54.220245
H   39.002422   82.827316   34.274525
H   73.548874   66.789490   95.862022
H   77.083672    4.729591   31.912161
H   36.506489   24.390583   96.255440
H   66.914352    0.114722   56.400467
H   56.411541   28.567083   67.998909
H   59.238716   65.519585   15.906777
H   93.475700   79.797600   58.242481
H   43.298725   58.483749   87.399628
H   61.764347   64.669876   62.479366
H   75.733452   40.696777   15.682064
H    2.058826   54.623047   74.038788
H   84.172958   41.039780   27.760550
H   97.598923    9.144476   82.908279
H    0.576996   96.548164   62.521568
H   86.065178   72.514969   30.539532
H   44.467400   74.948181   64.053017
H   46.333374   75.519028   71.940804
H   63.010048   28.688114   63.104137
H   84.524040   97.942856   49.525101
H   92.869667   87.351128   12.459702
H   64.358452   59.326820   39.637005
H   60.250690    3.427798   95.712685
H    3.351285   82.048012   36.752716
H   28.981583   59.787762   22.669043
H   57.731133    1.863388   20.280638
H   17.535233   18.202095   58.092884
H   95.684143   10.249624   94.946411
H   19.687508   76.106712   23.486721
H    8.216525   44.560104   92.594604
H   96.845367   58.881916   79.110588
H   59.263943   45.422012   11.656075
H   17.565786   33.232944   45.723545
H    1.848885   14.136324   79.062012
H   59.583317   47.198853   48.049915
H   83.402725   39.976574   92.433533
H   16.068228   44.051762   53.642128
H   41.463417   33.421970   43.256821
H   73.950027   62.625072   72.620026
H   83.149750   65.276199   17.272253
H   21.717962   61.054596   36.874638
H   71.886505   87.957855   69.044769
H   95.395416   47.284718   35.318642
H   77.115356   27.439774   65.598099
H   82.411598   69.014565   77.228348
H    7.837240   47.253128   62.224365
H   22.569908   14.720966    1.831413
H   81.382294   76.673294   39.431953
H   55.921051   47.463802    1.525618
H   16.761709   37.893402   94.937660
H   92.055252   24.222723   68.243980
H   58.743824    8.730995   44.128662
H    0.865262   61.033894   90.148643
H   60.128174   68.458565    0.976603
H    6.776061   52.641888   51.832039
H   18.697477   43.679596    4.465612
H   55.177116   50.743382   75.077278
H   39.403469   95.927406   87.257843
