100
TIME:    9.424, STEP:  9424
H   80.015533   57.795845   90.518082
H   40.207718   15.536001   72.319328
H   41.760777   51.903984   12.716675
H   83.058395   44.382317   23.600622
H   10.752092   28.132141   10.182989
H   81.879883   90.998375   12.035819
H   59.056744   97.690697   27.422253
H   79.178482    3.898387   42.913719
H   21.967964   80.212723    6.879608
H   17.355352   51.699680   76.708443
H   23.657501   45.436066   31.979853
H   96.151833   96.067207   22.118244
H   42.812515   91.566643   88.576401
H   88.461746   76.028481   74.411263
H   95.069893   28.234688   97.701439
H   22.604729   87.471359   50.766663
H   66.284981    5.296025   31.292250
H    2.593549   36.266960   72.842850
H   92.049744   73.702820   59.852955
H   38.616001    5.684721   57.962334
H    5.042837   18.028536    1.460226
H   65.868408   56.594482   16.737595
H   59.918221   17.984018   62.718857
H   43.432545   49.566620    7.165523
H   92.528793   38.790466    6.135368
H    3.170464   48.283981    4.041183
H   49.437363   50.733479   86.952560
H   37.371979   96.320175   78.280663
H   16.087185    4.111279   11.694778
H   62.350945   57.595505   32.569069
H   86.949379   67.123184   63.782211
H   60.794422   92.137604   26.837166
H   34.171249   78.977905   46.785301
H   76.288345   10.069307   74.733498
H   46.418495   46.140938   98.415710
H   91.849991   23.560923   89.799324
H   83.683014   59.407967   51.039631
H   74.479362   86.490150   87.466866
H   47.282978   76.084557   31.056419
H   75.557419   29.939674   79.495865
H   91.188248   79.541992   64.369835
H    6.010454   78.559387   61.071232
H   92.390106   20.020763   82.177849
H   77.595131   70.830849    2.163118
H   39.193710   60.082302   62.551220
H   56.480911   42.659191   21.447378
H   15.370175   37.348919   15.931786
H   56.762814   92.434143   51.680882
H   40.502136   51.953846   68.548706
H   23.593214   74.177849   24.606449
H   43.755848   59.885986   51.388931
H   63.135509   89.261795   55.409187
H    4.345160   76.652283   55.542465
H   58.449646   53.445915   47.670845
H   90.441628   84.479279   80.494354
H    5.333340    2.620590   71.811584
H   93.693192   17.621223   52.288307
H   24.325285   86.906349   70.814354
H   33.529888   36.967575   88.004936
H   37.131779   52.148968   95.569618
H   54.176609   40.311382   79.630882
H   64.441734   40.224808   68.950737
H   13.855605   64.206200   87.238495
H   90.169067   93.099518   71.280197
H    6.376853    8.163273   73.184639
H   22.418083   73.778679    3.404881
H   31.463795   74.172668   22.053120
H   29.385757   56.506233   16.724304
H   26.592630   72.637802   69.177124
H   21.421524   21.988001   81.855469
H   22.770523   54.189884   49.108650
H   97.224129   38.686913   46.820728
H   92.529572   52.159657   20.117245
H   22.751415   52.974270   43.211098
H   16.434439   42.191578   15.835459
H   48.448586   11.562354   61.812401
H   22.683147   10.128551   57.881485
H   74.728691   34.515862   34.902481
H   13.429439   25.837460   22.829157
H   37.363060   95.648811    9.035212
H   95.306038   26.777964   43.243065
H   48.464828    5.592129   98.592415
H   13.962004   64.720863   27.437107
H   98.505669   18.591274    2.681284
H   93.461075   59.391052   34.202454
H   34.398067   55.214752   96.214233
H   96.562492   18.150597   72.915840
H    7.592347   50.958656   97.867401
H   51.260014   69.459068   51.114632
H   33.130436   21.546829   61.099617
H    9.691957   82.298477   32.479759
H   75.579468    4.254650   13.092866
H   89.550171   10.280752   47.776970
H   57.155983   84.846909   63.627666
H   93.654282    5.584388   32.638008
H   72.305344   23.588400   80.686951
H   14.569736    8.502761   95.204880
H   20.086809   52.758938   89.689903
H   59.775383   77.497307   55.679623
H   24.572655   36.799641   89.895935
