200
TIME:    0.746, STEP:   746
H   25.019415   60.795689   23.991863
H   32.474182   40.265182   10.439092
H    7.532381   91.285690   70.271416
H   34.898880   82.888008   31.267921
H    9.837811   96.553741   46.383438
H   73.157532   39.081360   50.572525
H   10.690261   54.945107   59.445385
H   14.227803   10.735740    7.111704
H    7.977309   79.920395   35.375553
H   93.049057   67.811058   76.113808
H   29.830355    5.403235    8.951744
H   32.870178   55.528709   36.852158
H   23.593319    3.801324   40.553215
H   80.487694   55.341778   66.648552
H   95.192276   75.839806   41.733589
H   14.551497    5.117878   43.407516
H    8.010461   31.416981   90.864601
H   24.547054    7.492324   34.511951
H   81.860947   11.383125   49.932617
H   91.666069   72.755821   17.855656
H   64.157600    2.017273    2.658600
H   78.764168   68.155342   51.075439
H   79.852852   58.862427   36.995018
H   19.325871   92.672447   89.999428
H   25.239807   33.054535   27.354916
H   18.242231   84.792511   90.244560
H    8.694764   68.949806   69.426559
H    6.123127   91.003014    2.062704
H   32.380337   41.149605   35.375450
H   70.183838   34.319599   81.122513
H   12.700869   72.589211   16.813454
H   22.724613   75.365707    6.061189
H   14.897179   19.873350   79.359772
H   79.679817   64.129967   47.134644
H   23.705729   68.892685   30.369787
H   16.532639   38.384926   85.278770
H    0.787537   63.507721   89.753639
H    7.886300   57.844250   92.417007
H   34.343094   28.281681   55.679123
H   85.230133   37.607693   43.930756
H   80.654869   81.586304   18.319595
H   38.525040   32.496376   24.826946
H   67.591141   76.158043   69.117210
H   36.154007   87.809669   36.845013
H   46.065956   91.733185   62.623955
H   33.939148    0.669914   48.190983
H   89.509521    1.421930    7.272894
H   77.797050   65.542885   29.457108
H    6.649190    9.550329   61.531147
H   44.009846   20.084974   84.305771
H   66.171280   64.091591    7.815697
H    1.795568   44.407207   74.420540
H   65.824425   79.951454   14.540852
H   14.875702   92.861771   89.196342
H   55.780991   65.131653   74.408806
H   98.819267   59.883949   95.217377
H    3.986427   18.660255   44.226765
H   72.936874   70.342255   96.170250
H   17.504057   84.252182   19.364536
H   31.400265   93.147865   57.640305
H   48.780746    5.504210   27.452522
H   99.030815   17.623560   52.945305
H   85.387482   35.688278   67.813904
H   36.386284   65.874245   14.965088
H   79.482391   83.622437   38.621082
H   18.890436   36.219414   41.958572
H   67.274269   12.488584   96.289284
H   94.507835   92.600349   97.289482
H   34.520844   12.691112   55.575279
H   42.324238   50.449238   50.955570
H   58.243187   85.343826   86.816162
H   17.919479   10.521735   41.222843
H   93.553360   34.410931   82.552139
H   24.350313   97.842506   75.303749
H   85.306351    9.062541   43.820618
H   66.103508    1.212569   59.570976
H   93.288879   48.787376   64.988258
H    7.813815   15.183924   30.664894
H   15.378195   52.236046   23.728815
H   60.650806   87.844940   70.264923
H   64.843910   21.550135   93.621399
H   48.886066   59.490154   72.214592
H    9.025563   19.216696   75.474800
H    8.173437   78.405586   10.343078
H   20.889458    4.674595   43.442467
H   38.922508   68.070190   17.249519
H   58.533569    3.838501    2.931384
H   71.123573   99.711609   30.527405
H   81.173599   73.288788   78.993042
H   20.909729    8.727993   49.298702
H   20.031994   39.260921   78.503830
H   80.530815   92.975006    9.408634
H   71.297516   11.155354   81.318680
H   37.337933   76.254677   82.998512
H   37.946053   50.081581   89.014107
H   48.317421   39.022415    5.270712
H   86.169518   96.777275   20.121315
H   92.984932   36.301003   53.384418
H   25.552299   64.709229   54.674438
H   76.002449    6.149280   27.373941
H   32.442165   94.416748   92.766640
H    9.387538   84.311890   63.073479
H   33.668304   18.677588   37.573505
H   46.189568   68.873718   10.256644
H   24.667982   20.823067   41.492619
H    7.455543    1.999258   20.200491
H   89.627983   36.379704   53.904343
H   61.769466   53.702209   99.175484
H   85.655800   33.702499   23.600269
H   20.621256   21.005373    8.013758
H   53.851929   91.669701    1.151859
H    6.311204   76.069519   96.274849
H   48.305672   86.146439   82.929161
H   61.510124    8.488613   61.905891
H   46.964546    3.038947    9.030698
H   93.388512   90.995522    1.761418
H   11.770749   15.567697   90.078903
H   38.203899   51.902325   23.864067
H   38.078506   76.710999   58.531933
H   84.136009   56.773861   68.218979
H   45.835701   25.121906   70.939095
H   96.456589   15.493259   63.072220
H   44.435493    0.481533   39.040089
H   96.622421   49.110550   95.706596
H   61.775597   96.424049   76.077980
H   66.260338   76.196320   15.761479
H   82.809212   51.552536   51.513046
H   64.360695   91.538536   39.276119
H   98.694664   34.167652   73.359032
H   92.270782   21.751026   75.122047
H   69.034721   67.118683   22.748455
H   62.277962   91.069992   21.259708
H   90.785469    7.212691    1.139490
H   76.109299   25.976261   55.934628
H   29.422840   92.220825   33.165253
H   48.881165    0.977446   76.227028
H   69.730438   87.853920   80.528252
H   95.534355   48.421963   75.203331
H   59.539215   51.409882   71.430412
H   43.722038   84.822441   81.397644
H   75.668274   48.188469   31.255157
H   33.944199   56.385162   58.042568
H   38.739395   66.073952   82.317093
H   34.527077    8.211325   86.509377
H   64.086319   52.985596   65.614532
H   64.480110   70.693130    5.612021
H   56.698723   94.561882   43.658840
H   28.835808   54.583443   65.921898
H   78.712372   43.665909   92.914261
H   25.591808   94.199135   71.061310
H   58.385445   69.903366   47.524258
H   55.087532   93.108345   32.295433
H   99.682175   12.918407   85.702209
H   23.285686   12.757320   63.448360
H   33.677349   67.242538   69.907082
H   78.523201   44.783558   69.629013
H   64.607834   76.058716   86.747238
H   53.240059   28.541321   21.578682
H   89.223000   99.827713   83.839348
H   58.006710   36.298004   97.659256
H   58.926308   63.852364   69.962135
H   19.846258   20.434074   31.160408
H   87.000145   12.508415   37.021656
H   29.848261   35.044415   49.550545
H   54.109291   39.257820   14.796352
H   20.631611   48.339191   59.535793
H   66.186745   89.382759   57.585827
H   24.074238   53.954498   68.936478
H    0.948657   26.524683   35.662117
H   49.564377    6.641223   84.705292
H   69.698364   11.651332   35.933609
H   28.682531   46.652542   59.011955
H   47.449593   55.711315   76.186600
H   64.995132   62.435318   85.978973
H   47.919861   91.230118   75.439323
H   16.529106   50.394928   23.774879
H   30.219616   68.728439    8.074226
H    6.214605    9.683418   71.350357
H   62.661060    9.616439   63.216991
H   62.230621   59.882927   93.523018
H   72.179703    3.322259   29.954674
H   29.433794   30.723721   88.088531
H   42.336720   89.633347   16.091766
H   62.500359   26.156651   95.805489
H   92.066467   66.387589   76.312180
H    9.853300   40.493454   86.486671
H   48.971191   95.857475   10.476908
H   66.111649   88.657906   43.232254
H   91.964455   63.429852   72.326401
H   58.815010   55.520794   72.095963
H   71.991989   14.283401   75.688057
H   43.504837   98.680206   18.179327
H   15.339841   29.561947   69.398186
H   26.263708   83.725266   43.510723
H   67.530197   31.654209   20.161106
H   76.563492   11.625071   22.633926
H   12.824718   99.356743   20.545515
H   14.203922   87.349648   32.696472
H    5.165685   13.027723   55.386971
H    2.730198   17.849510   90.718872
