100
TIME:    1.492, STEP:  1492
H   16.424623   85.197372   97.780045
H   59.767555   85.639183   72.115166
H    5.400863   81.244759    5.821231
H   81.727036   71.179527   58.382999
H   81.807343   92.347908   25.249962
H    4.880080   99.591698   26.503206
H   74.773689   62.085972    7.129193
H    2.618042   17.679379   71.204247
H   16.951790   42.843735    6.170350
H   34.066505   37.806267   66.117271
H   61.472824   26.276142   96.032715
H   98.892975   98.477150   86.727180
H   48.355667   71.439262   76.835838
H   81.206688    0.477206   70.782768
H   98.647743   36.754986   79.054001
H   41.534668   81.235283    9.192037
H    4.112941   80.665329    9.198756
H   33.027725   22.144897   47.821579
H   68.499321   40.945312   41.966206
H   52.319641   74.128769   17.914896
H   75.739243    7.683460   16.749214
H    5.410499   46.069206   92.213661
H   65.823677   82.487877   89.661606
H   80.418541   54.575932   96.264771
H   76.221672   67.844551   47.570511
H   39.817768   83.151596   49.327019
H   33.421669   80.457230   29.573355
H    6.651711   26.081219   16.089582
H   43.613113   84.458069   86.645164
H   58.203045   53.913010    1.998749
H   74.792793   55.839905   91.348511
H   59.962955   11.291537   61.142159
H   75.452835   59.320335   32.208099
H   41.142235   36.989754    8.896019
H   43.685829   46.136452   15.581497
H    2.277953    1.687668   15.510468
H   22.901562   49.896339   26.028936
H    2.325403   31.646297   27.727871
H   83.645981   48.658195   99.125153
H   22.664049   72.507820   55.422398
H   33.279388    7.377381   77.495407
H   97.528717   78.820229   72.896805
H   24.092306   72.447021    9.242515
H   84.085335   37.776115   26.614202
H   27.235928   73.022598   83.784378
H   58.838650   91.374397   89.229591
H   51.834217    6.224751   40.372261
H   56.319096   10.744936   60.894436
H    8.644681    8.882568   84.957932
H   57.181805   53.458591   79.311974
H   43.430790   25.600813   69.148270
H   77.641563   25.292257   76.115463
H   39.829346   30.659851   16.216171
H   42.140499   82.862892   97.655228
H   21.981522   89.301620   13.066797
H   95.433060   10.963926   41.835602
H   90.838409   46.496071   97.888954
H   14.959785   35.987022   75.124832
H    7.948486    1.808570   96.941406
H   60.560764   42.468441   21.173546
H   53.817394    9.187900   98.068413
H   45.957153   14.057631   27.846169
H   75.434982    5.409750   31.201271
H   45.492630   49.910599   86.632515
H   91.541924   41.680660   34.508022
H    9.689352   68.101326   34.404034
H   67.862595   99.946320   39.096752
H   77.303062    2.865628   37.528828
H   31.263290   42.580719   66.658211
H   60.609001   23.185957   98.591400
H   74.654366   93.884682   44.253239
H   50.944340    2.008419   65.860130
H    9.710228   44.505093   23.491291
H   97.353081   54.963875   14.534599
H   34.107414   30.766638   14.501541
H   60.933727    3.195323   95.537376
H    2.418473   97.230209   17.434149
H    2.077204   53.163353   96.836624
H   33.068359   49.131687   34.325584
H   26.355148   27.696089   92.384132
H   40.079281   44.717083   69.162010
H   53.270016   53.971451   62.017410
H   12.201381   32.158813   72.005524
H   52.807117   39.833965   27.152260
H   79.681183   55.559822    3.119855
H   16.951397   63.860851   45.392342
H   66.802025   94.872360   94.687317
H   79.973419   85.841583   80.234077
H   86.645210   11.100316   15.992777
H   34.425392   47.891525   77.552071
H   85.081306   53.994289   64.970047
H   88.679848    7.718908   61.948692
H   81.013847   72.335312   34.340591
H   91.434944    3.732957   27.416946
H   30.797375   16.084908   50.370720
H   17.154709   36.812981   90.385040
H   44.174149   53.303234   51.382935
H   12.343261   28.941162   32.164795
H   37.636467   43.281719   20.073528
H   31.899643   40.379940   53.985054
