100
TIME:    4.046, STEP:  4046
H   43.707428   50.982483   95.441788
H   88.735298   24.110109   33.218689
H   49.301781   64.989433   75.849770
H   82.155716   65.955009   18.387602
H   58.931396   97.062248   56.000656
H   65.284187   96.824760   79.435326
H   40.919277   34.543072    6.855464
H    1.878677   38.632092   36.703808
H   54.169533   97.286880   45.406078
H   64.274010   74.477928   66.129028
H   23.905960   29.041920   50.017872
H    1.414152   26.495508    4.930754
H   85.883560   16.920532   22.991287
H   54.746574   92.604958   65.143661
H   29.716423    8.622530   56.286167
H   38.844177   57.851128   97.187439
H   98.751778   49.581333   41.711693
H   87.598106   97.943504   59.275021
H    8.286163   48.089211   76.520538
H   83.511772   19.894884   91.803154
H   24.181335   53.425945   47.426933
H   50.274307   49.455109   74.724014
H   31.724098   61.716362   16.589024
H   43.124275   85.207092    6.581244
H   84.876373   65.292557   66.420448
H   28.103758    7.053267    9.939274
H   13.187361   74.290970   80.248817
H   91.152313   45.293304    0.509112
H   99.146713   16.176899   65.915627
H   56.134598   90.700920    5.034347
H   75.292000   84.868080   89.272301
H   21.223951   40.724197   24.705544
H   55.353046   72.457787   62.292587
H   49.054962    2.931050    1.300431
H   80.198227   53.073570   71.100479
H   24.347788    2.319612    6.720909
H   67.862228   56.362778   27.274160
H   96.764534   84.907326    7.957238
H   74.290833   93.263176   52.224632
H   82.105156   33.410088   56.366016
H   58.736191   95.013168   37.667706
H   67.989700   93.444153   92.886276
H   46.091404   87.762604   93.720879
H   20.994371   80.578156   76.330688
H    5.695509   72.255371    2.337444
H   25.888714   40.088062   99.595863
H   73.344040   44.873497   64.305473
H   56.455494   37.042450   18.921440
H   83.298569   97.360687   83.077972
H   10.734263   92.317909    0.682887
H   43.235935   79.028145   96.077194
H    1.761385   88.300751    8.448643
H   92.799751   45.468811   67.885323
H   82.996483   41.192284   10.355594
H   18.645401   13.169710   34.759724
H   98.628677    8.277975   54.891418
H   52.749599   72.801018   40.795784
H   24.782219   94.792564    9.339010
H    9.376829    9.721846    0.869076
H   92.024994   38.777431   48.532722
H   14.925209   90.414696   98.938637
H   55.314171   90.282486   12.284558
H   48.743839   31.191780   56.024101
H   20.870623   63.803741   17.290073
H   92.914726   37.696590   72.355370
H   52.792915   41.134102   85.414902
H   62.950394   88.243225   62.403240
H    0.880724   48.932632   59.624798
H   58.555885   59.066574    6.473583
H   12.358728   51.645584   93.213409
H   93.552940   20.109997   13.613007
H   40.355873   17.246490   52.851673
H   43.185104   18.175213   58.011391
H   41.143185   93.340385   62.754417
H   57.243877   34.407116    8.111922
H   21.306543   66.884727   23.685406
H   34.305290   75.866745   62.604618
H   22.068768   86.162727   37.885651
H   55.531693   41.634350   62.828293
H    1.101613   88.600060   72.354729
H   90.049362   71.139389   21.808737
H   44.901535   70.651016   48.453735
H   73.788460   74.793030   15.261486
H   28.508871   58.384102   93.877762
H   55.322891   95.804237   55.538071
H   58.175983   57.672646   22.749893
H   37.377922    9.175774   16.472563
H   21.082773   81.361794   53.666100
H   39.650497   68.897423   95.099739
H    8.617408   42.813042   68.850067
H   89.601562   91.904167   18.905924
H   77.659454   99.781792   10.621201
H   44.809883   48.917999   31.887918
H   38.289272   58.653793   99.620140
H   86.636909   87.313408    9.060210
H   28.104630   35.958504   58.467796
H   41.449615   99.872459    4.499556
H   21.717672   50.686951   91.293861
H   15.971092   54.291012    6.141235
H   90.523994   74.804878    7.975646
