100
TIME:    6.130, STEP:  6130
H    2.775859   59.869926   93.533829
H   31.178650   37.039883   64.623085
H   85.133087   14.920772   51.387897
H   82.505508   80.093903    4.155921
H   40.265198   64.103958   99.496704
H   32.960812   94.567009   85.820885
H   31.697376   75.265266   69.827065
H   38.080383   18.925243   45.358059
H    2.940813   96.918777   14.224839
H    7.328196    4.401410   47.732029
H   30.057358   12.896255   49.276489
H   21.875359   30.955662   56.588799
H   52.898849   90.896751   15.913994
H   51.559669   86.181496   23.735592
H   55.060982   22.471008   56.109936
H   55.050079   75.576759   24.197609
H   31.169075   87.422768   31.426428
H   32.154179   96.553436   87.027870
H   40.743176   35.514702   86.314423
H   27.364555   75.633827   33.691490
H    0.513839   45.956928   90.864799
H   50.069412   52.221649   97.252182
H    3.898257   44.767326   56.964157
H   49.493000   10.160860   51.806896
H   10.340785    0.019188   81.811317
H   18.602324   45.441956   13.980103
H   33.481857   87.660233   21.595076
H   15.310468   42.567375   69.400192
H   44.462059    5.253811   67.403778
H   36.043842   39.122429   70.706070
H   57.311180   71.743828   24.392845
H   52.809147   83.146057   31.779228
H    2.145426   19.982264   50.035767
H   37.109444   11.944749   13.504293
H   28.396587   95.538124   98.002075
H    5.508309   65.556648    0.153464
H   67.744942   80.041138   91.485451
H   10.629337   46.772762   55.017612
H   86.322937   47.853752   50.269569
H   85.815796   38.313206   20.329687
H   16.309608   66.515785   86.765846
H   83.610901   65.641937   92.907219
H   64.042084    0.259829   44.250153
H   87.922653   15.534689   80.094444
H   24.924000   90.033981   80.670761
H   98.998497   79.837204    8.065001
H   89.625290   58.208389   84.307243
H   56.566792   58.506989   47.867573
H   44.214767   24.763443   99.944656
H   54.442684   24.033957   54.923042
H   43.080677   77.831421   18.046890
H    3.039598   94.921051   71.639748
H   36.027073   57.552551   46.848537
H   34.734764    7.183946    2.317156
H   52.715416   95.808456   52.487843
H    1.230667    6.085558   83.947128
H   84.867180   12.668290   39.001534
H   69.603180   97.984322   55.660995
H   73.736206   97.776054   40.882011
H   54.500992   98.959366   89.258812
H   46.386036   93.498917   36.452702
H   81.352242   70.884903   17.990135
H   90.226128   88.982582   13.117950
H   63.977158   75.155823   60.713306
H   75.634155   71.252121   66.429222
H   24.770645   37.532524    8.637044
H   95.746689   60.290035   63.018692
H   56.924751   68.118507   59.252048
H   62.422344    9.323616   75.770447
H   54.576019   56.464607   88.825104
H   27.378006   78.315720   88.614937
H   68.519669   48.082275    5.431293
H    7.303405   15.092178    4.572639
H   95.265831   61.450100   38.929222
H   57.721569   37.380352   66.093643
H   70.577461    0.447714   83.457947
H   23.518871   95.238136   99.460030
H   19.978878   49.895317   52.977852
H   55.467289   35.512981   86.074394
H   98.904587   75.089394   92.816277
H   30.826914   92.699326   46.364445
H    1.286497   84.224701   74.166435
H    5.610114    9.633941   13.733185
H   71.882927   36.716820    3.536973
H   53.849266   65.451485   53.517609
H   10.206715   34.218697   67.468994
H   76.563560   57.651848   15.845556
H   54.616264   14.544516   32.019226
H   82.897568   52.863396   78.055305
H   24.364065   57.072857   43.349380
H   74.887505    4.434702   62.916180
H   31.856821   56.513779   50.325478
H   78.398346   11.448850   93.046890
H   39.708164   85.073189   40.135437
H   50.608284    0.640727   56.946751
H    0.234422   53.664337   50.826523
H   76.031883   19.468393   84.647247
H   26.445009   89.771133   55.820152
H   16.693787   63.274319   31.585464
H   19.969538   21.329533    7.217638
