100
TIME:    5.538, STEP:  5538
H   42.809731   14.159099   94.075821
H   47.528633    4.958798   27.293732
H   74.952667   72.329987   58.338947
H   82.406143    4.483955   36.606178
H   45.567688   16.652544   15.547556
H   42.143063   95.208366   27.192747
H   62.721935   35.290096   23.531893
H   84.610413   67.708359   99.712395
H   17.493324   53.837296   51.490295
H   23.501089   95.900841   24.551497
H   85.123764   89.076157    6.301666
H   44.471916    1.282146   98.728691
H   90.675705   26.697029   74.738213
H   80.872414   88.006203   78.684654
H   47.861732   75.351089   84.566010
H   78.852570   27.355423   73.338593
H   78.774055   48.265644   77.534332
H   19.494146   25.358315    7.550493
H   31.524673   10.677913   55.124058
H   43.312675   88.208046   93.385445
H   35.643944    4.891281    6.933876
H   93.313797   51.435760   47.666412
H   11.803149   49.582024   73.901413
H    4.497570    3.078829   95.772751
H   31.512657   46.969261   77.439247
H   21.300993   62.943787   69.648407
H   84.531189   12.268223    9.847986
H   65.260414   14.934807   49.831001
H   31.589745   51.542515   95.388641
H   13.345129   53.774284   23.643482
H   34.010033   18.658981   71.230003
H   15.429770   99.505188   86.583672
H   60.447605   63.295845   96.703728
H   12.094884   66.198082   38.443291
H   43.112228   40.289841   61.952286
H   54.046329   19.188591    2.015260
H   10.965611    1.720981   44.837994
H   35.096470   57.608089   13.243490
H   11.310451   60.753166    7.639200
H   41.575665   93.734001   73.753502
H   56.768448   46.204071   72.818581
H   33.896599   60.407776   62.974827
H   58.942875   96.709686    1.490174
H   25.723919    5.598029   22.212553
H   76.274635   13.391864   30.012465
H    6.638245   68.545700    5.659911
H   85.000290   26.013634   78.625359
H   56.535175   52.409576   11.237937
H   26.911667   73.792053   23.560425
H   42.026287   15.023252   96.330002
H   43.122105   34.985703   11.806447
H   74.269081   49.854824   10.501717
H   23.746433   54.119934   81.231163
H   48.442650   16.843925   76.193321
H   99.850670   43.929020   47.451832
H    0.493284    6.708284    4.100220
H   47.336227   29.750298   82.697273
H   13.684854   53.892036   70.909042
H   27.047155   72.763115   86.328056
H   93.568497   53.458073    6.096687
H    9.041595   21.029736   82.609673
H    2.363249   76.395157   44.778099
H   50.035839   29.380270   53.713165
H   23.323708   71.930969   76.784302
H   52.136513   18.532890   11.298732
H   61.137871   66.962700   73.633110
H   43.244720   39.825314   34.437637
H   97.818062   34.262058   30.951025
H   32.915386   51.860970   12.898112
H   42.584442   26.687057   90.071686
H   46.176659   18.595215   95.715034
H   17.333992   67.729492   62.089478
H   45.903717   44.373306   19.752937
H    8.297955   98.919518   74.104515
H   29.180941   36.535748   21.216148
H   56.582634   62.508057   23.292685
H   69.770256   46.549435   88.990547
H   92.165634   88.604240   20.282175
H   27.080448   37.251873   79.471123
H   27.934437    7.337676   43.817535
H   19.241831   86.574814   10.982570
H   56.853004   80.385590   23.687258
H   68.166893   99.734314   57.355595
H   31.155806   86.057541   57.605427
H   82.674217    2.478833   10.905352
H   23.833302   12.473289   26.358887
H   37.025230    0.695071   87.616669
H   45.095268   61.918316   38.157288
H   70.612411   85.825554   82.897102
H   76.705536   81.427658   22.188055
H   50.660454   72.466553   50.414227
H   88.054817   11.990035   39.047523
H   40.449860   93.686714   47.266621
H   82.493965   49.157177    0.218053
H   60.842903   53.670071   43.342747
H   51.337692   77.042267   81.403915
H   23.021879   85.495277   18.693924
H   27.192923   63.390442   67.412209
H   44.895447   60.722439   81.171669
H   83.197357   36.520451   64.248581
