200
TIME:    0.456, STEP:   456
H   16.108473   61.758137   19.033043
H   29.889502   36.031517   98.665916
H   13.610473   78.592438   55.987358
H   25.123558   79.498421   38.851349
H   12.916816   89.203735   50.552940
H   82.591736   46.952415   59.156013
H    6.488677   55.150871   53.832211
H    7.729066   98.213776   17.405247
H   96.200508   84.268005   42.450100
H    3.257624   71.873253   87.552559
H   19.722437   99.208443   99.787476
H   31.670990   47.788193   23.034197
H   16.475628   94.176460   52.438896
H   94.194283   54.118252   52.674252
H    9.193370   73.607368   42.447128
H   23.004398   17.066616   49.663429
H   94.368668   17.834846    4.944912
H   31.432983   93.550766   39.674877
H   72.212128   21.881985   45.663551
H   90.743446   76.738365   29.097492
H   60.677299   87.540787   15.944540
H   85.220314   57.070595   62.250900
H   88.537010   60.970963   43.953407
H   13.183351   90.028481   90.908775
H   12.634982   21.391211   37.702892
H   18.482290   71.922256   99.822578
H    3.078657   63.130863   57.766556
H   99.467316   79.039894    1.299628
H   20.166096   49.964302   37.073563
H   83.288620   26.550707   91.154099
H   13.079487   60.473423   16.458897
H   27.998165   68.568832   98.921059
H   21.904243   13.633373   75.817520
H   89.277748   63.813576   42.065750
H   37.622837   80.875717   32.576084
H   26.005562   44.997055   81.953346
H   92.464050   69.766953   87.576515
H   22.230804   50.342686    5.455666
H   45.076050   38.665966   49.232933
H   88.011276   38.800243   55.258881
H   80.568581   95.133591    8.693797
H   24.090532   38.577499   33.426384
H   72.812698   82.819954   58.348850
H   36.800064   73.724739   26.473509
H   36.157166   82.885300   52.158714
H   38.020149    8.217136   45.037029
H   84.044586   15.629868    0.915073
H   84.857216   65.547310   39.882523
H   95.433823   20.555264   61.322063
H   54.387691   18.776266   96.574219
H   73.069931   67.762169   19.308460
H   12.881145   39.415752   68.185646
H   58.001785   88.241783   10.753286
H   19.191856   86.741928   84.901833
H   68.056076   71.581161   83.787697
H    2.536688   67.028831   85.721222
H    4.814048   17.562843   47.337574
H   69.768539   63.600697    1.404903
H   23.623346   78.650070   12.350690
H   38.107533   94.776283   63.001251
H   49.719963   11.162188   35.925682
H   93.818108   16.936571   50.721718
H   77.398056   29.681063   77.597687
H   29.359512   65.460503    8.490135
H   74.820602   79.299164   26.762197
H   30.266684   24.952894   36.745865
H   78.106789   18.605820   90.297768
H   96.131828   91.941017   91.547981
H   24.205637    8.772178   59.245857
H   43.993587   45.394726   50.971058
H   58.370407   80.328033   79.059052
H   26.069866   18.144236   43.252834
H   84.349258   29.397350   92.262909
H   14.902312    4.216868   66.860756
H   81.775162    4.368117   57.456406
H   58.773415   11.450841   61.466003
H   94.514618   37.991364   69.090279
H   18.554859    9.903181   40.581429
H   13.172741   39.316723   30.154461
H   65.021393   89.462296   84.017975
H   52.535641   26.451429   97.926971
H   36.134182   64.706032   81.179741
H   10.156993   16.035639   83.959831
H   17.630320   68.922707    0.891536
H   31.216415    1.607952   51.660889
H   30.752678   78.216827   23.286392
H   45.536095    3.234205    2.266521
H   73.535225   10.505095   19.589237
H   72.296951   72.582993   77.948730
H   22.362251   95.728859   52.489162
H   32.188164   36.757450   79.793732
H   82.550850   90.430603    3.080922
H   57.520649   14.426018   89.578033
H   50.342045   86.673454   75.035637
H   30.598152   54.004387   76.935936
H   60.327003   32.538612   18.905783
H   82.235649    6.808178    7.631796
H    0.956720   31.795170   50.638676
H   32.123497   67.614273   53.646721
H   70.960106    1.437299   27.303141
H   19.503325   86.398560   79.110939
H   98.604408   79.924454   64.673134
H   27.656874   29.276133   33.521267
H   32.255089   68.338287   98.739944
H   25.052408   24.634140   32.090496
H   95.974312   16.197580   33.778130
H   75.890419   32.778820   55.253983
H   63.478642   42.567680   10.389248
H   78.285881   37.363121    9.577290
H   11.305423   25.048761    6.594424
H   50.036430   94.189766    0.947823
H   94.667114   68.777039   92.971550
H   53.342484   82.781189   89.237068
H   62.492485   14.740654   69.383911
H   56.642128   90.963074   19.199097
H    5.223407   99.478340   88.678711
H   23.694141   11.484206   86.698166
H   39.675228   37.628223   29.660881
H   27.065420   65.823166   72.864243
H   76.482887   50.985897   57.400406
H   42.808968   23.194798   80.441887
H    8.969120   22.363148   54.541832
H   37.443916   12.712629   30.436789
H    0.894874   59.545921    8.406221
H   70.453117    3.604008   85.669273
H   55.635799   68.262207   21.360838
H   90.017616   50.198471   62.712845
H   70.704002   89.264061   36.826855
H   95.125862   44.664974   79.967842
H   78.214615   23.125557   70.181480
H   57.328255   77.473297   11.665920
H   73.409172   88.193710   14.420796
H   91.732430   93.103706   98.981903
H   90.329193   18.541073   52.365826
H   15.096726   97.464508   46.491287
H   56.605087    1.349634   80.499413
H   69.250320   87.114937   66.091530
H   93.060753   57.476719   79.785469
H   51.959106   47.354324   71.499001
H   43.564949   98.730370   89.455658
H   61.311199   56.716644   21.887329
H   47.294571   47.573784   51.282200
H   48.061867   60.736668   92.098663
H   47.815498   18.708853   81.703773
H   50.454952   62.603439   56.131657
H   53.854408   65.697250   19.501167
H   49.839897   95.831871   45.735294
H   36.754433   65.378349   67.585716
H   70.959686   55.773949   95.797180
H   16.347328   91.033012   81.913742
H   68.606697   64.978287   49.713551
H   42.879929    1.133080   41.383377
H   86.210114   23.761990   95.882034
H   15.619829    6.100704   70.614815
H   22.177753   59.583416   64.661186
H   69.914268   44.064487   60.706314
H   61.572247   67.361282   83.313400
H   49.117020   33.194260   14.784573
H    2.495904    0.920452   94.594429
H   61.258015   48.130585   86.530258
H   56.077682   75.634056   77.672783
H   33.462627   21.936932   33.672729
H   74.517082   25.152439   37.142239
H   19.203253   26.525089   61.957275
H   56.886009   29.417616   11.946898
H   15.635177   57.566525   61.121067
H   71.180412   94.073311   54.511524
H   23.820904   40.760109   56.944599
H   97.007957   27.467772   36.346893
H   36.330162    8.829686   87.970978
H   75.238525    8.202559   35.957947
H   38.701027   57.424217   58.121414
H   41.846375   68.172989   84.346390
H   68.566147   69.371330   79.250687
H   61.398560   93.411667   89.075111
H    7.576238   48.827599   23.493975
H   33.198780   59.668678   95.943672
H    3.644352    9.406853   67.642166
H   70.077644   16.358263   66.608536
H   76.025566   56.772118   89.432060
H   77.474274   92.929832   36.697174
H   23.584433   30.369717   77.501602
H   55.690411   89.940887   10.345840
H   56.184708   25.620113   85.136696
H   88.316238   78.965790   77.506943
H    3.782313   38.046402   85.035255
H   38.873230    0.824656    4.051184
H   80.043915   76.373970   33.084511
H    0.363173   62.136631   69.012039
H   53.541458   57.098324   68.432022
H   58.138905   23.878014   77.758980
H   45.882195   90.799194   21.873137
H    8.898353   22.662743   62.754181
H   31.329836   72.151550   37.666340
H   77.482132   44.607418   21.109726
H   75.855484   10.913467   26.607067
H   10.897056   91.449181   10.757306
H   22.632040   93.113274   40.875069
H    9.032901   12.216280   68.356789
H    5.754887   27.674778   94.747879
