100
TIME:    9.418, STEP:  9418
H   80.421295   58.346077   90.523575
H   40.373428   15.210863   71.941032
H   41.657642   51.472313   12.787113
H   83.057388   44.629509   23.929502
H   10.805857   27.651215   10.345667
H   81.972900   91.004875   11.441619
H   59.371181   97.285576   26.953045
H   79.650070    3.379320   43.464638
H   22.115456   80.789597    7.257292
H   17.519255   51.613529   76.473518
H   24.215607   45.194641   32.557823
H   96.380806   95.766457   22.545315
H   43.195114   91.929832   89.172684
H   88.758835   76.046974   73.954689
H   94.997017   28.770638   97.990013
H   22.845993   87.996140   51.264709
H   66.767464    4.899184   30.746046
H    2.465235   36.558922   73.050858
H   91.956268   73.451141   59.536869
H   38.777637    5.812140   57.553825
H    5.398897   18.625849    1.623090
H   65.293182   56.586517   17.248550
H   59.998329   18.032793   62.890518
H   43.990055   49.494843    7.611139
H   92.743393   39.266312    6.091079
H    3.198768   48.460861    4.605817
H   49.954773   50.982914   86.833542
H   37.878220   96.040115   78.082359
H   15.956719    3.566920   11.978386
H   62.120872   57.744003   32.092079
H   86.713264   66.585129   64.256912
H   60.415577   92.303406   27.392616
H   33.748596   79.416901   46.244774
H   76.034836   10.619162   74.986275
H   46.567818   46.595222   98.050690
H   91.328415   23.090960   89.818184
H   83.107513   59.627693   50.566853
H   74.727379   86.599922   87.043434
H   47.536259   76.215294   31.637848
H   76.122574   30.501396   79.023819
H   91.598312   79.336090   64.228477
H    6.516111   78.535858   60.764942
H   92.338470   19.984760   81.744438
H   77.978188   70.730141    1.576491
H   39.714142   60.319012   62.037746
H   56.558319   42.544750   21.423002
H   15.323266   37.022579   15.874165
H   56.762447   92.372345   51.309635
H   40.326767   52.450748   68.788025
H   23.467283   74.086479   25.025967
H   43.722431   60.462723   51.377670
H   62.843914   89.818527   55.803047
H    4.220705   76.617493   55.890961
H   58.588577   53.543831   47.406075
H   90.919350   83.953491   80.443359
H    5.325867    2.626902   72.015839
H   93.312790   17.794350   51.717659
H   24.772039   87.472969   70.968895
H   33.056652   36.714020   88.465538
H   37.527699   51.687771   95.740273
H   53.798084   40.590389   80.098625
H   64.654686   40.280655   69.222191
H   13.448264   64.615623   87.649933
H   89.757080   93.066833   71.443069
H    6.138701    8.642506   72.625893
H   22.786652   74.076958    3.050105
H   31.945202   73.965210   21.763424
H   29.800217   56.163094   16.437469
H   26.293573   73.068924   69.553406
H   21.299667   21.686655   81.868195
H   22.961067   54.598164   49.180611
H   97.718239   38.886131   46.380955
H   92.920776   52.456425   20.271099
H   22.883480   53.353985   43.567604
H   16.145430   42.182743   15.380545
H   48.306725   11.177810   62.216103
H   22.138203   10.647884   57.775055
H   74.446800   34.908165   34.571106
H   13.141723   25.855083   22.762186
H   37.657310   95.975655    9.552107
H   95.188576   26.715891   42.884453
H   48.014618    5.553179   99.094398
H   13.582495   64.620522   26.865681
H   98.092857   18.077824    3.229279
H   93.753220   59.766373   34.784088
H   34.536175   54.994339   95.797577
H   96.161766   18.586845   72.629738
H    7.495856   51.438759   97.929565
H   51.135502   69.793144   51.163704
H   33.660938   21.793701   60.885155
H    9.446402   81.974472   32.353050
H   75.135529    3.803402   12.978562
H   89.165558   10.100714   47.312981
H   56.609962   84.485458   63.171093
H   93.758011    6.121842   32.500130
H   71.809769   23.825315   80.996857
H   15.045981    8.158442   95.549942
H   20.098391   52.462078   89.810387
H   60.061211   77.471397   56.182201
H   24.199989   36.953587   90.473907
