100
TIME:    8.842, STEP:  8842
H   19.373753   11.168026   91.050919
H   56.281631   83.999161   35.621189
H   31.756762   10.033046   19.548622
H   82.960709   68.359978   55.503647
H   15.967234   81.482544   25.962032
H   90.902588   91.628899   54.399406
H   89.560936   58.393341   81.909081
H   24.922531   53.546497   96.350136
H   36.274635   36.170502   43.515079
H   33.253700   43.343021   53.920784
H   77.793732   22.018829   88.043175
H   18.365921   66.894386   63.545784
H   79.924606   26.793159   46.413445
H   17.278624   77.822365   30.120235
H   88.000923   80.221809   25.689217
H   46.006042   38.375389   99.077209
H   13.086059   66.799065   78.310493
H   90.143814   64.587242   93.019608
H   82.982635   49.287334   29.192631
H   54.294727   18.044317   18.337030
H   39.579903   75.968658   17.257582
H   10.071496   55.821869   66.300308
H   67.688759   22.715166   79.370010
H   97.508301   42.604218   50.390858
H   13.344203   84.945450    1.839236
H    5.915768   65.441330   58.811283
H   99.623009   74.926712   75.407761
H   86.479370   69.154373   59.044106
H    3.431394   51.307247   39.205284
H   40.033958   71.999863   86.302521
H   64.046272   14.935284    9.828178
H   24.046436    8.218422   80.715858
H   93.175064   21.559422   94.354141
H   51.697922   63.406158   99.252876
H   60.902779   90.206551   63.008572
H   41.257130   77.975555   91.628731
H   27.862179   80.721443    5.180398
H   98.536949   97.138008   46.395920
H   71.849785   88.766075   87.457169
H   30.376207   84.425026   33.704475
H   30.962904   59.570473   50.658169
H   55.058319   76.277069   31.361084
H   87.381439   16.528461   40.139538
H   14.753300   61.060837   45.257755
H   89.677826   83.039452   12.745076
H   63.989471   31.558510   19.082914
H   10.819970    5.695810   10.342548
H   56.727291   86.439728   15.669996
H   23.491318    0.156699   91.762634
H   11.377508   65.314995   65.301323
H   42.894459   16.005447   46.636688
H   34.850750   43.267124   93.613594
H   92.275276   73.277649   89.343094
H   71.928589   62.943733   21.988972
H   36.782112   33.475250   75.547852
H    4.608459    3.232798   91.624237
H   56.795105   34.414467   96.935127
H   67.662292   41.869698   85.804832
H   87.627464   12.374482   32.684967
H   75.537331    7.412877   12.123070
H   17.460585   67.375610   25.004406
H   85.098045   45.641983   95.281761
H   74.344879    3.920430   27.147980
H   50.204769   89.929138   87.078812
H   83.277725   54.648853   18.985708
H   58.170845    2.711623   68.992409
H   78.158096   54.051388   93.953232
H   69.588303   23.221104   88.901337
H   97.584961   14.456596    5.676996
H    9.601424   92.755753   83.089874
H   41.254414   93.789650   56.088814
H   45.149757   58.011131    4.161501
H   30.476791   80.948784   35.041119
H   35.561703   89.809731   77.792213
H   88.399628   41.334599   71.708054
H   34.688072   74.263054    0.975589
H   69.825027   60.503841   47.557770
H   47.387974   72.569298    2.759003
H   85.519386   27.546978   16.332987
H   65.905357   27.354097   59.175011
H   83.912209   20.756907    8.457454
H    4.793262    1.813982   47.281898
H   77.150902   54.987705   72.011070
H   58.463585   68.788307   55.836430
H   21.799118   95.801010   90.621002
H   47.794476   33.834671   55.798553
H   57.692036   60.466728   45.163918
H   98.232719   97.528603    3.900084
H   39.182377    1.864354   55.874641
H   84.587387   45.493408   40.296776
H   85.873741   50.871838   20.188988
H   32.517361   60.482239    2.005168
H   52.242710   92.818901    2.770015
H    1.810812   49.606800   23.000490
H    3.716660   57.718014   19.265917
H   24.234573   46.570618   10.748226
H   60.765892   75.103050   28.677292
H   21.210207   23.962925    1.376528
H   87.500664   74.984093    4.426464
H   88.422195   51.732395   45.962605
