100
TIME:    7.868, STEP:  7868
H   85.241692    0.488227   91.942642
H   83.181961   31.219372   74.208694
H   15.014650   39.958939   30.981262
H   82.797226    8.488331    8.890175
H   24.694979    3.412199   52.371063
H    6.004689   92.684105   57.941193
H   40.608097   92.622162    5.741016
H    1.477011   69.283043   85.780144
H   60.217415   29.817280    4.823900
H   59.856789   29.357821   15.783157
H   68.392838   82.828751   81.863617
H   55.543365   18.072521   32.875679
H   42.033546   85.746262   43.206547
H   65.504875   80.824501   55.999340
H   76.170723   67.224289   72.528351
H   85.167572   23.565063   79.928009
H   91.409187    2.378827   89.643433
H   69.319748   11.982031   26.782558
H   67.808472    8.424100   77.878052
H   80.538376   38.727383   52.022621
H   97.378456   72.933594   43.691830
H   16.693163   54.528870   49.245392
H   80.693062   30.632929    7.236861
H   88.007355   30.952364   22.727390
H   48.179024   62.189568   94.646889
H   10.509090   94.154831   50.469093
H   83.612778   15.412942   56.084042
H   68.661858   23.691336   26.846045
H   82.252739   62.938465   85.247948
H    2.687870   96.106125    8.872295
H   25.710207   27.594746   86.887962
H   62.547604   35.126720   70.883904
H   24.567926   92.822456    6.608532
H   10.543185   52.667427   40.284271
H   85.142799   63.952019    3.746426
H   56.589375    1.683989   94.690315
H   34.442806   16.392050   28.432829
H   38.793358   14.962400   77.663795
H   12.960149    9.987368   81.844872
H   22.116131   75.608002   57.073303
H   97.530014   26.153128   27.711149
H   37.141838   72.457520   81.635094
H   78.999237   10.685646   69.786354
H   76.944656   44.706444   50.026264
H   74.164406   21.462070   29.396397
H   76.562767   12.984649   15.125891
H    3.205366   52.726997    0.988814
H   56.667843   76.407837   55.404797
H   95.021492   80.822151   30.615711
H   90.930420   50.489429   33.401512
H   42.961338   10.038729   36.367004
H   87.513046   33.646534   57.551666
H   72.077736   67.630066   45.910194
H   94.489197   78.831772   79.009781
H   14.332939   48.119194   67.269684
H    3.395344    4.257351   24.781509
H   95.049622   62.518623    4.299668
H   40.187912   33.852211   10.892867
H   10.806503   71.220146    7.459480
H   39.811600   32.548893   39.825951
H   56.020245   12.673615    0.945641
H   19.667244   54.707840   39.352348
H    8.218638   70.384796   93.938080
H   83.321587   84.623383   13.521541
H   44.617783   32.439915   28.281878
H   18.004410   51.131706   11.401772
H   56.304260   20.380108   46.929668
H   36.869286   67.516655   42.338501
H   49.043182   84.442039   66.766846
H   89.819740   43.832912   85.155701
H   72.187828   60.063599   67.770393
H   25.357025   90.350975   32.767704
H   93.982376   29.129190   60.016811
H   57.000225   51.453175   35.663147
H   41.480103   39.900410   97.858856
H   11.659661   11.837391   66.511543
H   81.364952   44.805626   30.280993
H    1.633108   36.253231   48.960758
H   38.811935   30.407925    5.463190
H   13.671365   80.411980   43.085915
H   64.844185   10.680429   50.242523
H   31.705215   95.495743   28.767662
H   15.542809   38.698887   79.251907
H   91.455269   85.440796   44.796551
H   69.223953   56.729000   85.038719
H   70.211838   98.057983   88.160904
H   92.640709   31.284782   98.719856
H   82.568108   75.469543   13.999039
H   18.967579   56.094414   63.840706
H   70.702637   85.564957    5.480064
H   46.013691   98.281654   99.619553
H   60.451221   87.228439   83.443199
H   89.807556   63.599987   27.449099
H    7.678098   90.515343   57.325924
H   20.558853   44.962593   96.885529
H   43.786148   85.033630   61.056496
H   38.077171   19.207691   84.692619
H   23.090258   75.767235   20.931284
H   33.899529   70.778130   86.009743
H   27.923174   76.726730   39.791080
