100
TIME:    2.148, STEP:  2148
H   72.061920   25.038681   97.179459
H   41.519753   21.205511   13.495153
H   16.677008   28.439320   98.120918
H   81.837143   44.153160   22.423584
H   75.931610   44.929188    7.464148
H   94.708748   98.881004   91.469261
H   40.393581    6.380024   58.429253
H   51.057732   74.430664   10.971182
H    0.826006   79.771896   64.879509
H   16.141230   47.225456   91.802330
H    0.453308   52.671894   32.843533
H   73.858551   31.358629   40.031624
H    6.628697   31.750542   11.635548
H   48.724998   98.455116   20.703526
H    6.627228   78.159332   47.520622
H   15.158176   23.857307   54.739029
H   51.371460   24.047676   68.923248
H   47.046402   90.243263   25.078629
H   78.719292   68.466354   76.526733
H   34.647400   60.196545   62.578468
H   36.811264   42.377552   98.944214
H   68.311203   46.935486   36.356216
H   57.065132   77.152672   70.893295
H   19.469078   62.443607   47.545547
H   52.758781   15.818428   52.410233
H   36.809834   63.602627   87.840004
H   76.854927   53.188641   42.591053
H   51.299385   56.701092   37.773052
H   57.877029   43.975105   55.634911
H   83.357582   37.677170   54.148251
H    0.598039   14.667898   39.440235
H    1.383333   93.166466    0.412970
H   21.659515   11.324589   91.305756
H   68.859276   76.871414   81.259598
H   27.379211   96.547668   55.525467
H   59.314892   53.221539   13.255769
H   85.820038   25.872263   77.719360
H   75.209282   19.639584   74.019112
H   54.406708   34.614136   36.154701
H   60.874958   11.094346    7.033930
H   88.449364   29.886824   92.950485
H   38.571198    8.260171    3.716682
H   29.742819   76.380859   56.624763
H   42.194466   48.771843   90.754074
H   70.331627   47.140606   39.921280
H   50.375393    3.886585   91.892189
H   58.510563   41.653717   46.074654
H   56.354130   17.499025    1.484021
H   27.818388   54.551189   58.791405
H   70.937706   63.443333   33.430546
H   43.380741   62.268028   76.065018
H    9.521925   64.421753   33.049854
H   53.437622   34.463562   78.117912
H   26.950680   72.162453   26.601206
H   69.758820   46.810482   18.632887
H   96.253860   10.274504   19.503815
H   32.425564   27.567604   60.280128
H   66.112396   74.035416   58.228348
H   59.683960   29.527498   46.580544
H   17.273533   92.889771    2.516223
H   95.197769   78.679268   46.920185
H   22.675442    7.950422   98.163025
H   19.929935   60.675880   86.196945
H   90.538635   53.479080   68.825142
H   17.579155   89.286804   95.600037
H   69.390236   35.489510   73.191872
H   15.230448   22.625280   70.767654
H   31.988853   40.384094   68.889420
H   63.960190   95.444756   25.513390
H   73.900696   56.182480   97.210052
H   53.824043   49.249947   36.385128
H   96.855164   80.237061   13.887785
H   66.938019   12.058437    6.669880
H   82.918999   13.449414   75.546532
H   65.733543   31.700048   64.230942
H   76.439842   45.239700   51.395741
H   61.980392   40.372658   29.037970
H   32.897274   10.267771   33.066082
H   64.515015   47.209377   41.643188
H   94.183296   91.969269   35.868996
H   52.916805   51.503704    8.369965
H    2.489311   58.255630    7.162760
H   53.706905   43.109497   34.486179
H   97.932381   95.968727   67.233795
H   47.740021   14.524834   39.527863
H    1.851921   87.954384   90.946785
H   10.614798   47.175827   25.968351
H   90.533722   33.320343   73.410042
H    0.258527   74.575096   10.626291
H   76.426895   20.900192    1.004808
H   11.927673   89.417435   78.823563
H   37.218571   57.054279   74.450066
H   23.103561   91.994492   85.090103
H   54.840870   43.525066   71.646217
H   19.453808   57.325722   65.445427
H   71.337570   10.909500   56.501984
H   92.104507   90.949959   13.656050
H   14.751861   34.526611   21.667091
H    6.387646   46.109478   65.121658
H   72.639389   23.529758   90.802399
