100
TIME:    2.668, STEP:  2668
H   36.895905   77.352165   96.703384
H   27.055031   49.400246   46.296589
H   25.615301   65.850632   92.019234
H   81.924423   22.728960   93.920593
H   71.274017   86.609482   93.364944
H   86.647224   98.317650   42.966999
H   13.141031   41.494217   99.093925
H   10.186760   19.418253   63.228123
H   88.043404   29.776169   32.145542
H    1.932398   54.691887   12.164645
H   52.084167   73.595352   82.753937
H   54.012192   57.423691    3.018348
H   73.549980    0.289497   59.950684
H   22.977318   96.852333   60.277195
H   12.952957   31.710371   22.523512
H   94.249298   78.376007   11.574026
H    9.562472   58.436890   16.266916
H   58.158768   64.955788    7.049301
H   86.820488   90.278488    3.924276
H   20.638916   49.155590   97.982521
H    5.953753   90.609222   84.828613
H   18.164108   47.625793   92.073456
H   50.122383   72.923546   56.015976
H   71.155396   68.680176    8.924209
H   34.160149   74.576050   56.246597
H   34.425495   48.110378   39.099968
H   32.013840   31.570944   52.909962
H    7.424261   80.972939   54.963299
H   69.183792   91.154060   31.053690
H    3.296957   24.807297   95.487358
H   21.057104   61.299335   98.295280
H   34.216225   78.796959   52.273933
H   58.288898   73.278816   38.151466
H   90.830101   29.216385   59.352249
H   14.451932   57.239807   87.191277
H    4.526258   94.069756   11.468507
H   35.695099    6.827311   18.693113
H   53.716431   10.122066   10.715528
H   32.455719   23.285097   85.763443
H   11.898008   62.414948   47.947330
H   52.911663   47.727940    5.202571
H   91.836510   31.599380   28.145655
H   34.221882   79.499146   94.186241
H    8.989664   57.487968   41.596802
H   25.226709   26.625774   84.418678
H   43.666714   13.804798   94.002785
H   62.577030   69.932526   51.069466
H   56.381901   22.852877   33.658623
H   43.017059   11.486309   38.046471
H   81.839806   71.354378   97.062042
H   43.341068   12.065214   81.547806
H   34.791767   16.168350   98.911583
H   64.224586   37.478699   47.916824
H   14.909969   63.680244   49.547516
H   28.360748   92.396088   23.044508
H   96.904495    9.728010    1.801788
H   65.389900   12.563104    9.736485
H   27.391693   24.928074   44.834793
H    0.697276   51.498547    6.659014
H   82.958145   32.859455   87.726326
H   28.000498   54.496258    6.378263
H    4.221615    3.109343   74.637024
H   55.202389   25.215906   50.523117
H   26.245749   56.307755   54.706928
H   38.219555   47.755711   44.027016
H   37.445656    9.638680    3.938206
H   73.509773   40.602085   95.872635
H   96.068611   70.122864   93.748428
H   89.874504   58.080864   92.899666
H   84.437805   82.336006   96.115082
H   37.312202   13.868741   30.145180
H   53.977676   62.979370   51.960876
H   33.033600   86.336418   93.337883
H   71.477348   80.543655   44.641380
H   90.806786   32.441128    3.650029
H   88.730492   78.567131   16.407368
H    9.191706   95.302139   38.234776
H   57.327816   76.267448   61.785259
H   89.453369   45.681973   47.447327
H   68.681587   63.650738   91.070694
H   63.092892   56.883343   39.448414
H   41.507217   61.651627   63.681007
H   86.604874   51.789917   84.013763
H   33.704823   40.465790   19.737457
H   22.420055   81.999664   89.119835
H   89.886047    7.053669   27.057369
H   45.344414    9.367599   50.763885
H   98.904694   91.688019   67.998665
H   11.050911   45.621849    6.372180
H   30.451168   99.504715   19.592869
H   33.208191   17.496536   89.805008
H   75.696060   96.156548   84.360344
H   56.467899    7.576593   25.319229
H    5.099487   75.067558    6.708619
H   10.461956   10.745827   77.394890
H   14.287490   90.375374   29.643463
H   50.828873   20.791378   83.750298
H   16.660772   38.954102   13.346027
H   81.616173   48.350994   21.564735
H    4.933121   10.173460   40.719391
