100
TIME:    4.901, STEP:  4901
H   85.888100   72.574684   94.659012
H   65.121559   70.443008   87.129578
H   63.998398   26.501190   65.817192
H   82.299225   30.729977   71.523689
H   51.273239   65.594269   32.817444
H   52.023289   95.898476   64.109581
H   96.109428   92.276123   73.717590
H   34.677361   12.601277   58.201229
H   33.152000   15.082348   91.586189
H   40.908150   86.754463   99.605743
H   44.375946   63.444920   67.659515
H   68.785164   69.352486   44.070152
H   31.324081   65.217125   38.033936
H   12.412818   89.969612   30.208384
H   40.115013   32.249969   15.185213
H    4.464741   83.069595   26.215492
H   29.997963    6.134676   19.545713
H    5.872587   56.350574   29.631559
H   21.603138   83.956284   21.566278
H   60.473068    1.737748   50.015480
H   73.444435   68.308075   24.223057
H   32.243988   50.590134    1.912868
H   20.308617   54.762703   92.126129
H   63.685459   95.458466   43.082352
H   54.295929   97.484955   72.734840
H   24.204798   81.771408   29.550570
H   39.460144   38.748310   97.208961
H   19.009953   85.201828   28.772951
H   17.738960   93.749321   25.498825
H   88.919861   69.539879   73.004128
H    8.939576   61.536770   21.627419
H   75.209389   17.103935   45.553917
H   15.576801    9.902102   39.317741
H   85.180069   24.575226   65.279793
H   58.945862   88.441971   23.165230
H   98.673584   69.295967    4.018715
H   49.868279   25.051018   94.645065
H   61.422680   69.264854   68.290367
H   38.200199   74.633110   69.369003
H    1.574401   53.368645   23.634451
H    0.303634   24.348989   57.811138
H   91.146507   31.816858   33.052273
H   53.456020   92.889786   55.477409
H   66.396912   94.905945   59.929199
H   31.530584   38.522659   75.502220
H   14.857927   56.395893    3.070938
H   80.023727   91.370384   72.511574
H   56.501156   45.848679   71.824043
H    8.293297   26.549015   48.972160
H   28.666355    5.327703   40.881409
H   43.170704   96.483185    5.091246
H   43.311363    8.962835   52.321365
H   10.532802   50.426392   18.226130
H   63.192520   27.239304   48.083519
H   50.570282   88.103035   42.033016
H   99.698471    7.378346   25.785202
H    6.954845   48.130531   22.113457
H   61.116837   14.048546   87.316147
H   76.807686   45.848679   35.230408
H   35.603184    4.494380   24.214485
H   68.859467   50.651875   32.275330
H   24.969316   82.324265   73.600693
H    6.788789   72.847580   97.394165
H   79.582985   68.460983   94.075912
H   26.850821   69.410278   51.978031
H    0.269964   98.629967   35.968697
H   94.351685   17.803429    3.681879
H   41.820259   97.830032    0.498741
H    1.165964   97.631737   52.851456
H   29.680906   94.647949   91.413025
H   66.403664   61.936020    3.355725
H   69.856415   88.870163   15.449645
H   87.436630   75.882027   36.087143
H   22.318836   39.234539   11.952961
H   98.469002   35.626942   72.926971
H   41.521729   21.680449   66.153091
H   11.933626    1.759800   77.725243
H   62.238216   30.255646   85.103691
H   96.534752   39.122944   72.365913
H   59.170898   42.034863   98.695801
H    6.776963   79.984756   72.910301
H    9.052674   76.234818   76.958763
H   27.873766   89.081360   96.689743
H   87.330734   31.548609   15.786845
H   13.690915   42.324951   72.655449
H   38.495693   89.076317   82.123444
H   94.481422   47.010300   57.242142
H   34.843994   12.908878   44.775070
H   57.393417   21.292337   88.106941
H   33.024136    7.633789   99.417465
H   24.591820   38.071674   36.961956
H   40.923267   64.081299   26.912291
H   99.617241   74.576164   98.006393
H   20.927742   10.514123   57.266804
H   71.855492   10.727295   28.705200
H   98.724060    2.197102   14.306128
H   73.584099   48.938931   55.328033
H   24.855299   57.966766   77.608330
H   75.240814   57.976582   34.527046
H   43.630352   52.864376   25.611319
