100
TIME:    4.600, STEP:  4600
H    6.243525    0.177984   94.934586
H   73.434700   54.132248   68.151733
H   58.824501    4.846835   69.349129
H   82.248703   43.130913   88.021370
H   53.969269   41.467789   40.979019
H   56.691967   96.224571   34.299404
H   11.884867   71.952560   50.178997
H   58.335365   86.560455   85.837166
H   40.551155   44.022202   10.532841
H   49.134026   82.432549   87.820374
H   72.374237   51.333454   96.654465
H   80.271996   54.264824   65.496010
H   50.531570   83.418770   67.942871
H   27.315754   90.897377    7.301318
H   36.454475   59.136780   29.654015
H   16.568085    9.396271   51.201111
H   54.202522   86.225021   92.144493
H   99.436195   70.996117   40.066357
H   16.914940   71.330414    5.709266
H   68.583122    8.129908   29.521982
H   91.306206   98.272125   32.392616
H    3.386826   50.190552   27.545761
H   24.327400   57.210716    0.737861
H   91.651627   91.851440   65.438126
H   65.061676   21.356293   70.511879
H   25.576925   90.667847   57.854389
H   65.416771   51.261654   91.238197
H   44.406956   71.152161   18.822443
H   11.193662   66.439964   39.727089
H   77.377914   76.989555   49.075142
H   97.093239   34.546619   45.441582
H   56.203991   25.419373   73.419014
H   94.374733   31.923887   12.201283
H   72.462341   52.160156   77.960777
H   66.427689   11.195457    4.837280
H   72.507858   45.720631    4.965713
H   20.999197   36.074692   70.927353
H   73.864357   74.771736   47.050060
H   50.906445   81.191765   98.538483
H   29.925184   81.546928   99.952332
H   20.874172   14.021863   50.719707
H   18.199181   18.308004   18.913042
H   50.863331   91.084778   33.736938
H   85.618179   89.859955   30.498693
H   57.638920   50.397591   49.745258
H   18.741390   50.654774    1.847353
H   77.672165   75.001305   69.622643
H   56.485081   42.748474   53.199852
H   99.495224   51.476955   60.980286
H   22.353420    0.746291   61.932945
H   43.193668   25.543423    1.918129
H   28.683252   36.893581   72.081360
H    4.289164   48.681091   35.708080
H   70.164268   32.151405   34.800865
H   74.536011   61.721638   39.472477
H   99.321854    7.694969   36.031952
H   87.871994   56.815697   93.485634
H   83.530167   42.474663   95.068954
H   53.068069   33.130951   58.339561
H   55.465160   81.359558   32.775642
H   49.872437   64.648827   55.742729
H   35.651634   85.125931   87.218628
H   86.354591   93.387009   18.034660
H   58.914391   66.821320    2.247303
H   14.903550   93.449493   23.947260
H   18.759842   13.593103   18.171225
H   18.501936    7.397533   89.149704
H   62.612297   80.615860   86.109200
H   86.165421   19.259659   71.729614
H   23.582689   79.509766   92.046844
H   75.961479   82.415741    6.966628
H   94.676422   98.859711   93.412102
H    7.062413   90.772194   43.805504
H   28.944973   58.283573   29.836998
H   83.955452   35.197506   50.109463
H   34.405037    2.389054   86.407761
H   84.605331   27.848606   72.402077
H   48.096691   49.938396   68.482002
H   82.099281   40.007076   69.008507
H   73.932465   58.429203   24.627007
H    0.886875   76.870773   54.919933
H   86.468697   74.269058    2.127919
H    8.833918   84.047546   68.025482
H   66.621368    5.790729   43.277626
H   28.347902   61.153526    1.834086
H   45.424076   78.021217   61.221176
H   74.378319   68.895447   42.889343
H   29.998964   37.006966   47.905128
H   51.147079   38.051079   90.568733
H   59.637669   20.018532   88.656311
H   12.273673   21.818993   30.605387
H   18.651434   41.443817   21.177614
H   80.322487   65.541939   74.729599
H   91.834946   92.256607   36.973095
H   77.059242   37.689888   21.789448
H   73.862717   14.082823   29.853142
H   97.476341   31.665051   72.638657
H   23.750708   55.403931   82.426277
H   89.579834   56.679089   59.739746
H   24.934969   60.587330   54.608311
