100
TIME:    5.044, STEP:  5044
H   76.217445   59.460823   94.528091
H   61.172127   78.191315   96.145630
H   66.457520   36.789062   64.139229
H   82.323227   24.838013   63.685875
H   49.992401   77.056351   28.940449
H   49.805279   95.743553   78.270805
H   88.614235    1.931689   84.900375
H   23.437843   24.972240   45.071003
H   29.636787    1.333262   82.585411
H   37.000175   88.807732    5.205693
H   31.074432   69.198868   53.885311
H   63.327827   76.520378   33.891090
H   22.198929   56.569832   23.824707
H    5.332479   89.528847   41.091141
H   41.854073   19.477037    8.311073
H   98.714783   70.562332   14.344868
H   18.498787   15.592856   32.563568
H    8.930491   49.393246   24.674585
H   23.830421   89.954620   29.099657
H   56.620735   98.700722   59.751595
H   64.958611   54.071899   20.341812
H   45.953537   50.779968   89.735107
H   18.399361   53.599693   88.034866
H   50.398129   97.169159   32.461433
H   49.181305   86.145065   73.790932
H   23.552923   77.544861   16.103407
H   27.128748   32.803432    0.045584
H    6.944205   91.876587   33.500267
H   20.848320    6.723376   18.739513
H   94.403244   66.000664   84.372383
H   14.567790   74.360214   10.313713
H   84.238533   13.153214   32.315681
H   25.649502   99.439796   52.200310
H   91.222046   11.470187   59.255272
H   55.391373   77.632309   31.872528
H   11.104161   80.496208    3.568905
H   63.583282   19.813656    5.912824
H   55.512714   66.648628   78.382149
H   32.163677   71.517204   55.511078
H   88.104942   39.980942   34.885563
H   90.530441   29.255232   61.180157
H   78.294487   38.235214   39.769581
H   54.687763   93.747314   65.806129
H   57.266018   97.306152   73.911179
H   19.126421   32.881081   87.738914
H   13.012768   59.123402    3.652238
H   81.140915   99.147057   73.884056
H   56.508793   47.321533   80.672081
H   12.472931   14.706173   43.267303
H   31.665524    7.504255   30.880180
H   43.159794   82.677628    6.598740
H   50.261055   95.693604   42.933281
H   13.498967   51.255554    9.920866
H   59.881325   24.905647   54.393883
H   39.184570    0.636431   43.249485
H   99.877396    7.227924   20.917145
H   16.020264   44.004356   35.713905
H   50.468643    0.543758   83.632919
H   88.086479   51.890656   24.252026
H   26.167095   15.486196   20.147224
H   77.879883   44.002209   21.126366
H   19.894514   80.993240   67.131042
H   16.497084   63.089645   87.588226
H   89.402016   69.239960   90.194122
H   32.526817   57.989079   65.294823
H   91.485222   91.520988   44.423973
H   82.878693   22.747311   10.586212
H   31.942314    6.008527    7.334968
H    8.293324   87.356667   43.882317
H   32.577957    1.840024   91.111908
H   61.862907   52.206451    1.640197
H   58.065399   84.124298   25.919460
H   78.112915   68.807961   32.420280
H   19.171291   30.184555    3.456699
H    5.363614   35.830959   83.767181
H   44.902748   30.845423   56.531292
H   24.917112   89.365913   80.254189
H   68.956619   20.905201   93.000374
H    3.392365   38.702908   73.960960
H   52.157928   34.246189   86.376190
H    9.575174   81.464157   81.457222
H   19.782516   77.168716   65.001366
H   36.919273   91.472839   10.308270
H   97.169403   43.785324    2.726219
H    6.727833   33.379814   58.793159
H   35.204136   94.328407   92.053757
H    4.032094   36.613037   64.060913
H   37.146011    1.460175   43.288033
H   60.360947   13.330648   86.937386
H   20.380999    1.750008    4.529295
H   30.443962   45.792706   39.981853
H   51.503819   74.836411   29.636526
H    8.783603   78.867317    9.064838
H   34.749664   19.188147   66.908333
H   69.383278   97.918083   31.990757
H   10.535354   96.550201    6.919762
H   62.233299   57.145458   47.104050
H   25.380072   59.184326   75.319405
H   68.428589   58.592999   22.548920
H   52.512211   49.195332   11.835681
