100
TIME:    2.170, STEP:  2170
H   70.574127   23.021164   97.159317
H   40.907784   22.398314   14.882868
H   17.055166   30.022030   97.862770
H   81.840836   43.246788   21.217690
H   75.734558   46.692585    6.867662
H   94.367683   98.857170   93.647911
H   39.240643    7.865614   60.149681
H   49.328575   76.334045    8.951189
H    0.285196   77.656693   63.494709
H   15.540087   47.541344   92.663719
H   98.406921   53.557117   30.724417
H   73.018982   32.461380   38.465614
H    5.229297   30.419518    9.448967
H   47.635674   98.387306   22.377796
H    6.894839   76.194183   46.463020
H   14.273540   21.933113   52.912857
H   49.602692   25.502571   70.926331
H   47.516541   89.173409   24.315849
H   79.062035   69.389175   77.685883
H   34.054733   59.729427   64.076332
H   35.505753   40.187321   98.347015
H   70.420364   46.964691   34.482712
H   56.771400   76.973747   70.263870
H   17.425041   62.707462   45.911560
H   51.971916   14.073662   52.572540
H   36.708958   62.947186   85.777840
H   74.957924   52.274044   43.027622
H   49.443169   57.727978   38.500332
H   58.355392   45.971138   54.594933
H   84.201180   37.132675   55.897213
H    1.463557   16.640852   37.699497
H    2.772401   92.558525   98.376320
H   23.209160    9.715023   93.287689
H   69.788811   74.855240   80.332748
H   26.832283   94.884644   56.865051
H   61.227673   54.949856   13.180154
H   87.930206   25.066515   79.452881
H   74.299889   19.236919   75.571693
H   53.478012   34.134766   34.022713
H   58.802891    9.034741    8.764849
H   86.945793   30.641714   93.468796
H   36.593964    9.247571    4.750222
H   29.932318   76.512787   58.213768
H   40.789589   49.140602   92.905197
H   68.423210   46.272671   41.804016
H   50.091564    4.306202   91.981483
H   58.682606   42.850128   46.285973
H   56.355305   17.725534    2.845247
H   28.461409   52.729214   57.913734
H   71.398949   63.778187   31.891895
H   43.379063   60.144096   76.296982
H   10.591024   62.380268   31.605534
H   53.893997   34.591125   76.840263
H   26.441265   71.803596   27.571947
H   68.007507   48.739208   18.819532
H   96.281387   10.251383   18.754883
H   33.820202   26.932808   62.372505
H   64.474213   71.957809   57.661697
H   61.418991   30.457117   44.891502
H   15.821821   94.580658    1.890523
H   96.585526   77.656075   45.204960
H   21.894703    7.745607   97.167694
H   21.422176   59.175667   84.687668
H   92.049255   53.598755   68.227943
H   18.452377   87.529785   97.648773
H   68.038734   34.395821   74.492683
H   13.465288   23.385878   71.829788
H   30.469170   41.642273   69.941147
H   65.056572   93.863976   24.133522
H   74.346497   57.289093   97.163727
H   53.125465   47.753090   36.121105
H   95.041077   79.506927   15.498526
H   65.503601   10.970287    6.105747
H   82.434929   12.057168   74.239006
H   66.794334   31.731352   65.898666
H   76.959831   46.649780   49.915501
H   63.977936   38.465752   29.427122
H   33.930874    8.829241   34.281124
H   65.570099   47.144756   41.888748
H   93.104378   90.771179   33.973671
H   53.347332   51.731304    9.684834
H    4.140041   58.399307    5.323076
H   55.098858   43.476746   36.581577
H   99.445686   97.851295   65.224335
H   46.668823   13.148701   37.395203
H    1.345548   88.762398   92.474525
H   12.084127   45.576248   27.017393
H   90.887878   31.558960   73.181099
H    0.715135   73.350151   10.446318
H   74.481888   19.994995    1.791222
H   12.828003   90.605453   79.288162
H   38.846516   58.708744   74.869347
H   24.515068   92.653793   86.792068
H   56.967319   44.859615   73.129646
H   19.073383   55.355034   65.950981
H   73.154678   10.040768   55.365662
H   90.358231   92.212502   12.390779
H   14.832637   34.713928   21.315033
H    5.339653   46.204311   63.278770
H   74.005661   22.964703   88.683502
