100
TIME:    4.835, STEP:  4835
H   90.351479   78.627235   94.719437
H   66.944374   66.866867   82.968323
H   62.863922   21.753059   66.591637
H   82.288147   33.449211   75.141121
H   51.864395   60.304077   34.607025
H   53.046986   95.969978   57.573139
H   99.568748   87.819794   68.556305
H   39.864830    6.891523   64.261314
H   34.774406   21.427979   95.740395
H   42.711830   85.806801   97.021576
H   50.515106   60.789249   74.017212
H   71.303871   66.044228   48.768181
H   35.535690   69.208183   44.592041
H   15.680667   90.173042   25.185572
H   39.312370   38.145416   18.357800
H    7.118586   88.842178   31.694260
H   35.305275    1.769376   13.537474
H    4.461227   59.561649   31.919394
H   20.575161   81.187820   18.089334
H   62.251068    3.139349   45.521889
H   77.360970   74.878265   26.014400
H   25.916504   50.502518    7.533330
H   21.189812   55.299477   94.014404
H   69.817596   94.668915   47.984314
H   56.656525    2.719017   72.247414
H   24.505663   83.722122   35.756802
H   45.151657   41.492100   95.899757
H   24.578854   82.121170   26.591112
H   16.303871   87.761223   28.618507
H   86.389069   71.173363   67.757240
H    6.341939   55.618664   26.849129
H   71.042091   18.927254   51.663872
H   10.927742   14.730799   33.371941
H   82.391464   30.623749   68.060341
H   60.586395   93.431046   19.146477
H   92.936249   64.126625    4.226362
H   43.538277   27.468262   89.444504
H   64.150383   70.472343   63.632664
H   40.986286   76.071220   75.764969
H    7.790842   59.547585   18.441694
H    4.814157   22.084570   56.256207
H   97.078209   28.854784   29.951975
H   52.887524   92.494003   50.710396
H   70.611542   93.798157   53.476334
H   37.255352   41.126465   69.854515
H   15.709539   55.137043    2.802645
H   79.508102   87.781151   71.878120
H   56.497631   45.168900   67.740334
H    6.364182   32.014942   51.605171
H   27.282124    4.323141   45.497360
H   43.175739    2.855078    4.395480
H   40.103813   15.087141   56.654327
H    9.163802   50.043701   22.059328
H   64.721001   28.316376   45.171043
H   55.825226   82.318367   41.471569
H   99.615891    7.447772   28.031998
H    2.770805   50.034920   15.836323
H   66.031387   20.281576   89.016098
H   71.602089   43.060074   40.297531
H   39.958302   99.421310   26.091682
H   64.696198   53.720951   37.421005
H   27.311533   82.938583   76.586685
H    2.308026   77.351242    1.919992
H   75.051125   68.101456   95.867508
H   24.231153   74.681335   45.831821
H    4.324245    1.910964   32.066261
H   99.646912   15.521663    0.495257
H   46.379311   94.055496   97.343559
H   97.876694    2.374065   56.991058
H   28.343756   91.328613   91.552002
H   68.499397   66.426590    4.147504
H   75.298676   91.060562   10.617423
H   91.739883   79.146980   37.779541
H   23.771549   43.411404   15.874279
H   95.286629   35.532780   67.923798
H   39.961258   17.450460   70.594315
H    5.941226    7.480278   76.558037
H   59.137417   34.571384   81.459068
H   93.369499   39.316807   71.629738
H   62.407654   45.629635    4.381710
H    5.485446   79.301956   68.965569
H    4.100484   75.803787   82.477562
H   23.698915   87.977600   90.404556
H   82.789810   25.900652   21.814728
H   16.904669   46.453476   79.053429
H   40.014874   86.652275   77.540222
H   90.073433   51.809036   54.095016
H   33.781525   18.192850   45.461395
H   56.023788   24.966921   88.646736
H   38.859661   10.349380   97.057877
H   21.890831   34.508121   35.568157
H   36.039936   59.117401   25.654951
H   95.386497   72.595238   92.902512
H   14.548423    6.510704   52.817020
H   72.996513   16.639359   27.188789
H   93.272736    4.803258   17.715157
H   78.822929   45.151302   59.123718
H   24.613096   57.404816   78.664757
H   78.384918   57.692081   40.055412
H   39.531033   54.557781   31.969267
