100
TIME:    9.052, STEP:  9052
H    5.172587   91.910225   90.858658
H   50.481766   95.377792   48.863148
H   35.366459   25.140736   17.083679
H   82.995956   59.708244   43.992035
H   14.085482   98.314972   20.268711
H   87.646973   91.401390   75.196350
H   78.554008   72.573204   98.331352
H    8.416946   71.714218   77.069588
H   31.112434   15.979283   30.295656
H   27.517294   46.358311   62.143135
H   58.260040   30.467888   67.814140
H   10.350250   77.420662   48.597511
H   66.533646   14.083061   25.544895
H    6.880971   77.175087   46.101910
H   90.551582   61.463570   15.590721
H   37.562592   20.008080   81.645569
H   96.198921   80.689903   97.427620
H   94.636307   54.368584   85.739334
H   86.254272   58.097683   40.255634
H   48.637455   13.584669   32.634819
H   27.118202   55.062820   11.557785
H   30.204401   56.100647   48.416855
H   64.884956   21.008051   73.361862
H   77.997040   45.116425   34.793705
H    5.833617   68.292465    3.389433
H    4.925224   59.250534   39.048481
H   81.515251   66.198074   79.573410
H   68.759338   78.956467   65.985863
H    7.997800   70.360283   29.278442
H   48.086479   66.802414    2.997043
H   72.310280   33.766323   93.213669
H   37.306019    2.416747   61.275093
H    7.966969    6.195361   13.272603
H   60.570755   44.160858   90.405678
H   55.676491   74.306587   75.784424
H   59.512287   94.423462   90.968636
H   48.003258   73.031013   21.727377
H   89.856377   93.295998   61.214417
H   62.986378   84.190269   67.106369
H   10.596582   64.766365   50.227684
H   16.611441   66.776062   55.605679
H   37.360718   77.100586   42.081272
H   89.188690   17.788570   55.307308
H    1.344795   64.586952   65.789742
H   71.461121   74.756218   30.715921
H   61.280197   35.563854   19.936071
H   12.461797   17.116899   12.359283
H   56.740108   88.602661   28.663609
H   29.629242   82.763527   83.386475
H   15.785486   68.512932   50.617550
H   42.880039   95.730919   48.850891
H   45.056591   23.780235   79.828499
H   96.629982   74.495300   77.147354
H   67.064392   59.516685   31.255138
H   20.061264   51.879410   77.332672
H    4.870014    3.011898   84.475342
H   70.108292   28.355049   16.908117
H   52.025085   22.037600   80.395897
H    4.190552   21.248117   16.563070
H   61.678806   23.554760    6.150169
H   30.708151   57.609814    8.631691
H   77.644737   43.687332   85.780876
H   88.601013   89.590477   12.747650
H   64.625854   91.073090   81.378281
H   91.612228   37.875706   38.542362
H   45.270149   92.271965   81.409248
H   61.309647   61.310833    4.092061
H   55.082230   35.231575   98.940552
H    8.051399   99.367355   92.506592
H   13.866408    3.304077   82.644470
H   34.584568   79.501472   53.570198
H   27.857313   51.038475   19.554119
H   16.784622   70.560295   29.656216
H   30.939434   76.518105   65.314491
H   98.515747   41.643818   87.630447
H   39.653206   87.721306   86.844498
H   88.897293   42.327190   51.282822
H   57.252552   58.838676   14.357223
H   95.590645   26.930141   18.676966
H   55.606590   15.913786   41.083275
H   88.023384   22.929453   21.009117
H   20.551189    3.177231   29.713968
H   90.432915   58.499668   92.009392
H   72.911369   86.758278   36.656818
H   11.574051   82.663193   70.263794
H   42.960720   41.549133   70.381531
H   71.717461   45.198021   55.177498
H    1.609979   80.725014    1.722825
H   43.540287   90.171776   54.157112
H   66.021408   36.852890   47.802956
H   94.467796   62.210415   24.623802
H   48.055233   76.276459    6.005944
H   65.704163   99.118645   19.009638
H   22.106276   62.347279   37.159985
H    0.085509   38.906902   24.090860
H   41.579697   38.277771   99.901123
H   44.096886   87.154594   16.599312
H   20.804857   34.353634   97.159874
H   77.496696   75.890923   86.837425
H    1.466954   46.344288   25.731968
