100
TIME:    9.368, STEP:  9368
H   83.802643   62.931343   90.569351
H   41.754349   12.501379   68.788567
H   40.798191   47.875053   13.374100
H   83.048996   46.689445   26.670172
H   11.253893   23.643494   11.701315
H   82.748047   91.059044    6.489951
H   61.991497   93.909569   23.042980
H   83.579971   99.053696   48.055626
H   23.344551   85.596878   10.404619
H   18.885107   50.895603   74.515816
H   28.866486   43.182770   37.374260
H   98.288918   93.260201   26.104237
H   46.383438   94.956413   94.141708
H   91.234573   76.201088   70.149910
H   94.389717   33.236885    0.394739
H   24.856529   92.369308   55.415100
H   70.788155    1.592158   26.194349
H    1.395959   38.991936   74.784256
H   91.177307   71.353821   56.902821
H   40.124607    6.873960   54.149590
H    8.366064   23.603456    2.980288
H   60.499630   56.520142   21.506516
H   60.665901   18.439249   64.321030
H   48.635975   48.896698   11.324646
H   94.531723   43.231689    5.722007
H    3.434635   49.934860    9.311090
H   54.266525   53.061543   85.841721
H   42.096893   93.706284   76.429832
H   14.869435   99.030571   14.341782
H   60.203606   58.981491   28.117352
H   84.745644   62.101498   68.212753
H   57.258533   93.685089   32.021370
H   30.226486   83.075195   41.740379
H   73.922256   15.201281   77.092751
H   47.812172   50.380928   95.008850
H   86.981949   19.174601   89.975349
H   78.311676   61.458748   46.627033
H   76.794182   87.514687   83.514839
H   49.646931   77.304771   36.483261
H   80.832199   35.182411   75.090103
H   95.015518   77.620239   63.050503
H   10.729921   78.339783   58.212528
H   91.908173   19.684734   78.132683
H   81.170326   69.890907   96.687691
H   44.051071   62.291592   57.758801
H   57.203384   41.591076   21.219870
H   14.932355   34.303082   15.393990
H   56.759396   91.857361   48.215916
H   38.865356   56.591602   70.782349
H   22.417860   73.325066   28.521946
H   43.443958   65.268761   51.283829
H   60.413952   94.457962   59.085213
H    3.183603   76.327576   58.795090
H   59.746338   54.359795   45.199654
H   94.900368   79.571930   80.018402
H    5.263592    2.679497   73.717957
H   90.142776   19.237068   46.962257
H   28.494993   92.194801   72.256737
H   29.113159   34.601059   92.303886
H   40.827030   47.844463   97.162392
H   50.643711   42.915447   83.996483
H   66.429283   40.746048   71.484306
H   10.053756   68.027489   91.078583
H   86.323853   92.794464   72.800339
H    4.154105   12.636112   67.969673
H   25.858055   76.562614    0.093637
H   35.956741   72.236389   19.349293
H   33.254044   53.303596   14.047180
H   23.801432   76.661606   72.689087
H   20.284195   19.175440   81.974243
H   24.548935   58.000492   49.780281
H    1.835703   40.546288   42.716175
H   96.180817   54.929493   21.553219
H   23.984020   56.518276   46.538490
H   13.737020   42.109119   11.589594
H   47.124550    7.973273   65.580460
H   17.596996   14.975658   56.888138
H   72.097710   38.177361   31.809647
H   10.744090   26.001949   22.204096
H   40.109398   98.699348   13.859568
H   94.209724   26.198618   39.896019
H   44.262863    5.228596    3.277418
H   10.419920   63.784336   22.103794
H   94.652763   13.799118    7.795901
H   96.187759   62.894043   39.631042
H   35.687069   53.157562   92.325439
H   92.822380   22.222252   70.245552
H    6.691766   55.439613   98.447601
H   50.097904   72.577110   51.572639
H   38.081791   23.850967   59.097969
H    7.400103   79.274429   31.297142
H   71.436035    0.042999   12.026032
H   85.960449    8.600393   43.446404
H   52.059792   81.473373   59.366314
H   94.622421   10.600658   31.351252
H   67.679977   25.799612   83.579407
H   19.014626    5.289123   98.425461
H   20.194902   49.988247   90.814415
H   62.443108   77.255486   60.370358
H   21.094444   38.236469   95.290344
