100
TIME:    6.662, STEP:  6662
H   66.798416   11.083464   93.046768
H   16.487686   65.869545   98.165321
H   94.281708   53.194710   45.141346
H   82.594803   58.176178   74.996826
H   35.500122    6.746030   85.071594
H   24.709194   93.990654   38.506351
H    3.815557   11.187037   11.430231
H   96.266228   64.948486   96.510567
H   89.863197   45.769302   80.738136
H   92.796547   12.040918   68.561989
H   80.572021   34.302418   98.032249
H    1.569020   57.622227   18.720554
H   18.950729   58.725735   63.051689
H   25.218334   84.541725   64.222481
H   61.522652   74.950157   30.527081
H   33.660004   29.046242   80.036621
H   88.388618   22.610729   79.856483
H   43.531101   70.666168   68.584511
H   49.027264   57.834251   14.342792
H   13.032799   64.334023   69.912560
H   68.944199   92.993744   76.423454
H    1.072769   52.927887   51.947433
H   96.794899   40.440605   41.743515
H    0.061707   16.525118   12.295027
H   91.313545   57.831024   85.740273
H   16.177168   29.713959   63.951523
H   87.607307   65.547684   32.152111
H   70.420761   67.399345   86.983078
H   56.029747   53.520611   42.255219
H   56.443562   25.955559   12.998615
H   78.247963   19.450310   82.302773
H   86.400085   68.444946   82.529366
H   39.619434   81.058952   97.962524
H   59.587288   63.190170   91.092468
H   15.157497   55.263161   30.372660
H   51.753750    7.224922   98.481148
H   18.771828   60.558716   33.404758
H   88.639992   37.035610   92.560890
H   63.869419   36.261711   98.715408
H   35.707676   88.509125   62.187916
H   79.951340   84.772438   99.299538
H   38.776978   67.728180   20.067341
H   68.620453    3.451277   82.677147
H   53.951382   24.464132   32.111000
H   78.776115   69.041672   26.195852
H   92.130943   89.984299   10.226332
H   93.781540   87.139786   89.413261
H   56.595203   63.986420   80.784744
H   59.764175   80.702919   78.725052
H   65.609131   32.133335   17.724573
H   43.044147   26.470667   23.654175
H   28.898556   45.555809   36.717506
H   47.063053   60.637268   15.949659
H   22.416191   98.503616   25.791447
H   10.356346   42.430916   57.013447
H    1.893272    5.525946   65.836594
H   18.594362   97.316994   89.599007
H   29.989027   47.744026   41.958359
H   15.695329   20.256832    0.041668
H   19.396103   39.851971   74.127464
H   79.944511   68.756241   94.974564
H   62.470528   65.933121   93.918732
H   26.343233   52.680336   76.637115
H    0.506732   78.053833   46.267902
H   96.748230   28.760994   15.972049
H   92.090393   11.085325   40.093277
H   53.063950   78.683868   88.703018
H   20.176033   98.543556   84.684723
H   88.934914   71.097504   42.404171
H   65.352745   83.221611   87.704865
H   10.483425   42.119003   82.234444
H   24.655050   30.426331   44.382576
H   72.616226   88.777008   90.933655
H   83.552025   27.781784    7.320567
H   83.372429   38.139355    6.422502
H   83.151741   34.544247   47.660851
H   71.834564   49.188290    8.893152
H   44.973202   15.108004   82.357246
H   80.979790   33.950329   92.008415
H   72.814377   46.109291   46.983879
H   41.237831   98.203110   78.161377
H   41.207924   87.674850   29.661877
H   39.261902   18.530188   64.399582
H    8.485051   82.240746   54.945576
H   27.945444   32.173248    1.946281
H   97.962204   53.762001    4.412631
H   12.094713   18.971123   41.213295
H   63.172295   71.974731   26.503265
H   93.937607   23.242598   73.704231
H   77.328873   35.183544   62.365036
H   96.659111   33.160980   74.151047
H   71.219437   96.525803   60.460396
H   12.500443   27.412258   34.187263
H   91.123604   17.348597   76.007446
H   41.410957   52.988976   69.171967
H   44.175491   32.655792   23.348190
H   33.803734   49.998138   54.051727
H   25.418123   16.095390   45.141350
H   91.350883   65.570335   87.024681
H   53.012539    7.677644   55.969631
