100
TIME:    8.080, STEP:  8080
H   70.904778   81.046715   91.748550
H   77.326859   42.707989   87.575150
H   18.658724   55.211319   28.492844
H   82.832809   99.753410   97.269722
H   22.795305   20.404881   46.622711
H    2.716855   92.454430   78.935921
H   29.497776    6.937182   22.319691
H   84.814224   87.624718   66.315971
H   55.006050    9.433728   91.479752
H   54.066383   32.401829   24.084625
H   48.673111   91.359085   61.442131
H   47.451355   28.699047   17.785805
H   28.515053   72.913559   22.139120
H   55.007744   80.171059   72.132408
H   78.745674   48.287399   62.332329
H   76.643707    5.022587   62.330353
H   74.361458   16.400654    8.942632
H   73.851791    1.666333   19.433758
H   71.111267   17.318356   89.048035
H   74.825607   34.226070   66.456581
H   84.798073   51.828411   37.938625
H   37.017811   54.810303   31.191620
H   77.862556   28.909555    1.171088
H   68.310272   33.488495    6.982284
H   40.596504   45.376366   96.212563
H    9.509518   87.905075   30.518135
H   65.332565    6.599994   60.290981
H   50.774261   33.586781   33.853783
H   86.862419   82.172958   75.226341
H   10.816660   90.859177   25.725124
H   34.053928   46.604607   70.115196
H   75.933464   29.270000   51.257988
H   39.501270   77.311287   25.707167
H   19.501083   33.238838   31.352873
H   79.866737   47.900627   16.645124
H   75.018387   18.289366   94.023933
H   54.775539    8.627569   45.137661
H   30.031548   11.082586   92.625038
H    4.011214    5.368792   61.300255
H    2.148138   55.761444   73.752930
H   83.041061   33.426720   32.705776
H   19.275688   73.288879   92.458946
H   80.823700   11.957352   85.100197
H   63.407307   48.265106   70.754181
H   55.774933   13.098190   47.537628
H   73.826073   17.027420   15.987173
H    4.862627   64.256050    3.024857
H   56.680782   78.591370   68.522163
H    1.219207   63.263382   22.158970
H   95.381592   53.716206   18.578484
H   42.946781   89.571358   38.602295
H   97.816086   13.974455   43.635284
H   76.473915   68.859314   33.598305
H   89.578674   75.373703   88.365005
H   97.452827   66.698395   69.071503
H    3.659389    4.034348   17.564529
H    8.489688   56.401497   24.462807
H   24.402170   13.830908    5.432014
H   27.526703   80.177483   91.184509
H   25.822433   48.844517   33.796165
H   69.393173    2.814964   84.415565
H   12.142952   52.734573   29.759552
H   22.611355   55.918488   79.400604
H   97.878471   85.778229    7.765497
H   53.033279   15.507811   48.024399
H    4.981659   40.592522   23.937016
H   39.295349   27.709499   57.164776
H   22.225060   79.640923   52.473328
H   59.609863   69.209068   53.470276
H   94.125343   54.480465   84.706055
H   65.456078   45.639008   65.227791
H    7.899465   83.311913   48.306370
H   80.159805   18.642572   54.580624
H   52.333935   38.036579   23.067163
H   51.692566   40.212574   13.932568
H   16.671732   25.424625   52.247131
H    0.618875   26.455864   34.041153
H   11.592168   22.391842   60.669346
H   48.977493   29.785213    7.829088
H    3.275003   68.863518   24.821877
H   68.994514   12.873666   62.913483
H   47.612671   96.870560   11.031715
H   28.952127   42.244297   99.440689
H    6.040929    3.581993   25.434277
H   58.901505   43.467678   64.487633
H   65.333664    5.844909    2.882827
H    6.799774   15.870655    8.828926
H   85.977654   58.505394   11.800949
H   23.367802   44.290398   62.106819
H   51.958797   76.843765   13.058203
H   54.689594    9.728778    4.096769
H   76.137077    3.172974   87.483543
H    3.397162   69.959831   43.843384
H   28.166910    3.377133   71.620781
H   16.892944   25.972328    1.757083
H   61.296463   76.661804   50.106483
H   21.249929   31.373203   72.500420
H   22.681047   86.257896   16.675013
H   23.800285   71.693596   68.253578
H   41.090687   71.285690   19.367771
