100
TIME:    9.336, STEP:  9336
H   85.966705   65.865913   90.598648
H   42.638138   10.767309   66.770988
H   40.248142   45.572807   13.749771
H   83.043625   48.007805   28.424200
H   11.540636   21.078552   12.568930
H   83.244141   91.093712    3.320880
H   63.668499   91.748924   20.540539
H   86.095108   96.285141   50.993858
H   24.131172   88.673538   12.418901
H   19.759253   50.436131   73.262886
H   31.843048   41.895172   40.456779
H   99.510109   91.656197   28.381947
H   48.423965   96.893425   97.321884
H   92.819046   76.299721   67.714851
H   94.001045   36.095284    1.933588
H   26.143272   95.168137   58.071350
H   73.361397   99.475609   23.281263
H    0.711625   40.549065   75.893631
H   90.678772   70.011536   55.217030
H   40.986668    7.553526   51.970879
H   10.265051   26.789125    3.848894
H   57.431759   56.477661   24.231613
H   61.093147   18.699381   65.236557
H   51.609364   48.513885   13.701294
H   95.676254   45.769531    5.485801
H    3.585590   50.878220   12.322443
H   57.026047   54.391865   85.206955
H   44.796844   92.212631   75.372215
H   14.173573   96.127251   15.854355
H   58.976555   59.773483   25.573528
H   83.486366   59.232113   70.744492
H   55.238026   94.569366   34.983772
H   27.972336   85.416504   38.857567
H   72.570206   18.133881   78.440895
H   48.608559   52.803780   93.062073
H   84.200211   16.668131   90.075935
H   75.242340   62.630623   44.105549
H   78.116936   88.100136   81.256538
H   50.997761   78.002037   39.584335
H   83.846359   38.178261   72.572525
H   97.202530   76.522095   62.296597
H   13.426760   78.214294   56.578983
H   91.632782   19.492718   75.821159
H   83.213295   69.353798   93.558784
H   46.826706   63.554043   55.020275
H   57.616226   40.980724   21.089865
H   14.682172   32.562603   15.086678
H   56.757442   91.527771   46.235935
H   37.930054   59.241749   72.058716
H   21.746229   72.837761   30.759373
H   43.265736   68.344444   51.223770
H   58.858776   97.427200   61.185799
H    2.519861   76.142029   60.653732
H   60.487305   54.882011   43.787544
H   97.448219   76.767731   79.746429
H    5.223736    2.713158   74.807312
H   88.113968   20.160408   43.918800
H   30.877684   95.216774   73.080956
H   26.589355   33.248764   94.760429
H   42.938602   45.384747   98.072548
H   48.624912   44.403484   86.491112
H   67.565025   41.043900   72.932060
H    7.881269   70.211082   93.272919
H   84.126587   92.620148   73.668991
H    2.883950   15.192020   64.989693
H   27.823753   78.153435   98.201546
H   38.524124   71.129944   17.804249
H   35.464493   51.473518   12.517395
H   22.206461   78.960922   74.695923
H   19.634293   17.568262   82.042114
H   25.565170   60.177982   50.164070
H    4.470786   41.608788   40.370716
H   98.267242   56.512257   22.373775
H   24.688366   58.543423   48.439857
H   12.195638   42.062000    9.163385
H   46.367958    5.922369   67.733780
H   14.690652   17.745434   56.320511
H   70.594292   40.269646   30.042313
H    9.209605   26.095943   21.846918
H   41.678734    0.442537   16.616356
H   93.583260   25.867563   37.983421
H   41.861740    5.020863    5.954516
H    8.395872   63.249180   19.056187
H   92.451103   11.060776   10.718567
H   97.745865   64.895859   42.733093
H   36.423641   51.982025   90.103271
H   90.685173   24.548912   68.719673
H    6.177148   58.000160   98.779144
H   49.433842   74.358849   51.834358
H   40.911137   25.167618   57.954170
H    6.090472   77.546402   30.621361
H   69.068359   97.636261   11.416413
H   83.909180    7.640188   40.971794
H   49.147682   79.545639   56.931255
H   95.175644   13.467113   30.616022
H   65.036911   27.063162   85.232239
H   21.554543    3.452759    0.265803
H   20.256670   48.404995   91.456993
H   63.967522   77.117302   63.050777
H   19.106895   39.057514   98.372864
