100
TIME:    3.521, STEP:  3521
H   79.211578   99.127777   95.922440
H    3.326615   95.647247    0.103682
H   40.277542   27.218460   82.010124
H   82.067596   87.584343   47.165684
H   63.633774   54.981182   70.235962
H   73.423225   97.393532   27.442179
H   68.433235   99.091438   65.799721
H   43.142639   93.213608   84.907448
H   67.075035   47.763641   78.453148
H   78.621468   66.939705   45.569557
H   72.740189    7.917652    0.589317
H   21.453300    0.180415   42.300026
H   19.291931   48.682053   75.169731
H   80.741829   94.223152   25.189594
H   23.329762   55.517288   81.521614
H   59.952805    3.769478   40.767921
H   40.969337   14.858209   93.918869
H   76.382896   23.474602   77.476746
H    0.109534   26.063341   48.861217
H   97.658958   31.044004   56.058678
H   55.335587    5.690040   61.674255
H   99.942047   48.758163   19.432571
H   38.733604   65.986153   31.611397
H   91.902428   78.910553   45.573902
H    3.653608    6.925690   62.543190
H   30.513025   22.695940   59.146782
H   58.459927   96.112564   69.834694
H   35.450268   20.788071   83.157494
H   87.731232   68.544662   90.733284
H   36.003296    3.694806   63.297943
H   54.630161   37.790462   30.808632
H   88.075386   55.227867   73.307457
H   18.371630   10.869411   14.996442
H   26.872417   51.044075   23.416550
H   93.247925   92.759392   39.132233
H   78.694923   61.079273    8.533013
H   17.509060   75.588852   85.906425
H   18.463280   94.512352   70.907738
H   96.448883    4.701864    3.101528
H   31.554916   82.559235   15.058817
H   94.616852   76.996735   25.298933
H   15.173759   69.884201   68.220825
H   41.569271   84.614334   55.798313
H   54.519180   71.782227   24.998987
H   51.234425   92.971466   57.412411
H   32.661900   30.074482   97.464973
H   69.242477   16.321678   59.262878
H   56.427456   31.635252   86.437477
H   67.949753   40.839958    4.018903
H   99.723442   84.331078   37.400761
H   43.275990   29.714035   90.541687
H   76.246918   37.016624   42.915386
H   81.912987   42.424683   98.374672
H   95.156975   49.759903   87.189056
H   60.446091   67.156433   30.294432
H   97.971786    8.830725   72.763657
H   19.468462   87.949562   90.863762
H   63.875237   44.372849   22.862858
H   67.969566   87.539154   41.174191
H   26.669357   98.422867   63.464973
H   81.807838   14.829986   39.870632
H   73.947441   95.169113   36.040619
H   13.100560   67.016411   92.024925
H   84.820488   60.947868   31.545406
H   72.078468   79.627968   23.464712
H   85.044655   67.233498   54.372803
H    5.071728   70.090607   37.056866
H   37.146324   18.907042   34.526760
H   32.388397   96.789734   39.401951
H    1.722357   25.238283   94.318909
H   10.224163   55.831108   19.911549
H   83.644394   34.670120   14.412456
H   77.415527   44.142429   71.471428
H   52.702862   26.563164   93.948723
H   31.933546   33.658100   68.313637
H    8.894282   33.235435   59.009785
H   86.639046   21.369411   53.320026
H   97.403305   20.490568    8.890575
H   30.357550   43.176441   56.968346
H   26.848976   17.192066   17.583786
H   79.779434   65.708023   90.431091
H    5.508376   67.222366   92.353271
H   40.572590   66.029144   65.257751
H   92.389465   13.458405   41.827568
H   80.885559   28.643803    6.430983
H   70.258301   38.386490   86.292038
H    2.314355   47.347542   91.438095
H   12.633314   23.394394   59.125504
H   28.755127   98.129066   99.393562
H   55.035511   64.414261   50.083580
H   68.116425   63.553783    7.818887
H   38.812180   60.303879    0.616932
H   11.157338   33.164635   91.288780
H   87.545692   26.806931   64.220131
H   95.713219   34.340031   96.996605
H   84.741730   56.690620   85.584572
H   83.122131   69.743599   34.693947
H   19.791059   46.216888   99.697258
H   40.981010   52.027943   50.116875
H   57.912518   88.279152   58.551445
