200
TIME:    0.823, STEP:   823
H   27.385424   60.540142   25.308516
H   33.160339   41.389294   13.565058
H    5.918509   94.655968   74.064079
H   37.494293   83.788002   29.254391
H    9.020283   98.505295   45.276363
H   70.652588   36.991459   48.293461
H   11.805854   54.890472   60.935780
H   15.953330   14.060489    4.378567
H   11.104229   78.766029   33.497139
H   90.338501   66.731934   73.076622
H   32.514183    7.048059   11.385017
H   33.188583   57.583950   40.521160
H   25.483189    6.357047   37.397362
H   76.848358   55.666645   70.358971
H   91.474808   76.432556   41.544132
H   12.307166    1.945294   41.746464
H   11.632466   35.023148   87.125984
H   22.718721   11.194151   33.141106
H   84.422874    8.595538   51.066128
H   91.911041   71.698387   14.870726
H   65.081680    5.860936   99.130928
H   77.049950   71.098534   48.108162
H   77.547058   58.302574   35.147446
H   20.956816   93.374466   89.757980
H   28.586586   36.151348   24.607349
H   18.178492   88.209785   87.701431
H   10.185966   70.494835   72.522491
H    7.890364   94.179428    2.265305
H   35.623428   38.809151   34.924572
H   66.704292   36.382477   78.458954
H   12.600339   75.806160   16.907595
H   21.324394   77.170395    7.957043
H   13.036682   21.530144   80.300301
H   77.131401   64.213974   48.480522
H   20.010437   65.710983   29.783939
H   14.017356   36.629292   86.161728
H    2.997487   61.845787   90.331703
H    4.077591   59.836044   88.955086
H   31.493309   25.524569   57.390697
H   84.491692   37.291050   40.922943
H   80.677780   77.989265   20.875355
H   42.357651   30.881630   22.543623
H   66.204727   74.389191   71.976395
H   35.982468   91.549461   39.598747
H   48.696911   94.082451   65.402657
H   32.855572   98.666046   49.028412
H   90.960556   97.649338    8.960986
H   75.922455   65.541710   26.688980
H    9.627059    6.628360   61.586662
H   41.254349   20.432459   81.048286
H   64.339569   63.116989    4.764155
H   98.852242   45.732525   76.076012
H   67.901695   77.750023   15.546451
H   13.729634   94.486694   90.336609
H   52.521744   63.419197   71.918549
H   97.832329   57.986736   97.738770
H    3.766697   18.951637   43.400791
H   73.778122   72.132256   94.780312
H   15.879280   85.739639   21.226795
H   29.619370   92.715492   56.216881
H   48.531368    4.001919   25.202684
H    0.414798   17.805967   53.535706
H   87.508812   37.283241   65.216141
H   38.252068   65.984100   16.684299
H   80.720177   84.770340   41.769886
H   15.869850   39.210777   43.342636
H   64.398048   10.864321   97.880135
H   94.076637   92.775414   98.813950
H   37.259598   13.731656   54.600677
H   41.880997   51.791298   50.951458
H   58.209408   86.675606   88.875809
H   15.755411    8.497850   40.683846
H   95.997208   35.742123   79.973763
H   26.858929   96.150024   77.545509
H   86.243942   10.308991   40.200081
H   68.049774   98.494263   59.067814
H   92.963425   51.653904   63.899071
H    4.961864   16.586052   28.031883
H   15.965218   55.664482   22.018269
H   59.490273   87.415504   66.613251
H   68.111969   20.248756   92.478195
H   52.271912   58.105209   69.834190
H    8.725149   20.061321   73.221878
H    5.662506   80.923454   12.852648
H   18.147472    5.488856   41.260334
H   41.091717   65.376083   15.646642
H   61.984623    3.998952    3.107917
H   70.483238   96.845963   33.431606
H   83.530502   73.476189   79.270325
H   20.524059   12.179561   48.451580
H   16.804323   39.925636   78.161339
H   79.994461   93.650589   11.088779
H   74.955650   10.286936   79.125679
H   33.885117   73.488312   85.112793
H   39.897018   49.040009   92.221069
H   45.128670   40.743977    1.650360
H   87.214027   94.113716   23.437546
H   93.357300   37.923138   54.623737
H   23.807533   63.937889   54.947315
H   77.341278    7.400393   27.392740
H   35.877651   96.545715   96.392464
H   12.250614   85.476830   62.648743
H   35.264442   15.863495   38.649445
H   49.889412   69.015884   13.314538
H   24.565910   19.811161   43.989044
H   10.504044   98.229424   16.595375
H   90.786453   36.910061   53.035706
H   61.315651   56.658619   96.198219
H   87.612640   32.730541   27.323612
H   23.094770   19.931784    8.390615
H   54.865009   91.000580    1.206034
H    9.402804   78.005798   97.151932
H   46.968311   87.039970   81.254303
H   61.249290    6.828615   59.920559
H   44.394981    6.245244    6.330790
H   90.246170   88.743187    5.235188
H    8.604836   16.651978   90.976547
H   37.813236   55.692345   22.324913
H   41.002605   79.601906   54.726639
H   86.168045   58.310665   71.091675
H   46.639351   25.633587   68.415939
H   93.134483   13.669186   65.337013
H   46.291878   97.234024   41.324440
H   95.488029   46.339779   92.334557
H   59.471565   94.517731   73.531326
H   69.081200   78.303200   14.274767
H   80.895256   51.912064   48.539307
H   62.676437   92.142448   39.926441
H   99.642242   31.380432   71.604279
H   96.002937   21.386065   76.433853
H   72.142990   64.369354   25.691059
H   59.322433   91.833694   23.075558
H   90.534035   10.958797    1.712459
H   72.333672   27.950432   56.882206
H   33.226665   90.828537   29.626961
H   46.830330    0.878624   75.092636
H   69.857918   88.050133   84.361450
H   96.191139   46.017769   73.986694
H   61.551865   52.486702   71.412201
H   43.763748   81.129646   79.258102
H   79.480324   45.924091   33.742477
H   30.399511   58.724735   59.837563
H   36.264118   67.490913   79.719917
H   30.998772    5.424031   87.785347
H   67.705681   50.431892   68.132401
H   67.301697   72.019623    1.924183
H   58.519859   94.224678   43.107506
H   26.733276   51.717209   65.480125
H   80.770844   40.451015   92.148796
H   28.046377   95.039795   68.179802
H   55.671658   71.211060   46.942963
H   58.328861   90.977615   29.882427
H    3.259289   10.039249   82.999290
H   25.321100   14.524777   61.545273
H   36.730690   69.276337   71.299957
H   80.809021   44.974483   71.998253
H   65.413834   78.368034   87.658981
H   54.334797   27.305885   23.382635
H   85.698807   99.537506   80.983688
H   57.143433   33.156250    0.614149
H   59.682667   60.724121   67.914825
H   16.230862   20.035040   30.493343
H   90.314613    9.151209   36.989639
H   32.674660   37.306442   46.256344
H   53.372025   41.870564   15.552932
H   21.958250   45.889175   59.114876
H   64.860840   88.137337   58.402107
H   24.141502   57.457836   72.120529
H    1.995149   26.274277   35.480297
H   53.078289    6.060148   83.838196
H   68.227356   12.567040   35.927147
H   26.022350   43.792477   59.248409
H   48.937344   52.402428   74.020035
H   64.046967   60.593914   87.765450
H   44.341034   90.650879   71.818787
H   18.904808   50.812908   23.853893
H   29.428596   71.134102   11.294994
H    6.897054    9.756851   72.334946
H   60.691589    7.826365   62.316704
H   58.568081   60.708900   94.609238
H   70.773903    6.081753   28.164526
H   30.986900   30.817715   90.899544
H   38.791084   89.551689   17.617409
H   64.177238   26.299110   98.638237
H   93.062218   63.047859   75.994949
H   11.465226   41.143188   86.872047
H   51.652374   94.538620   12.183048
H   62.412392   91.919502   45.926655
H   89.734444   63.773224   73.206421
H   60.215229   55.101933   73.068802
H   75.670097   11.735867   75.138191
H   42.873608    0.772783   17.198557
H   17.050213   31.393805   71.162338
H   24.918564   86.798286   45.062508
H   64.887787   28.215052   19.909231
H   76.751480   11.814013   21.578989
H   13.336545    1.456478   23.144453
H   11.966054   85.819305   30.524914
H    4.138872   13.243176   51.943260
H    1.927081   15.240754   89.649101
