100
TIME:    8.748, STEP:  8748
H   25.730328   19.788069   91.136978
H   58.877762   78.905869   29.693977
H   30.140993    3.270551   20.651978
H   82.944931   72.232658   60.656464
H   16.809542   73.948029   28.510471
H   92.359863   91.730736   45.089912
H   94.487846   52.045731   74.558159
H   32.310745   45.414585    4.980790
H   38.585335   45.208191   49.432392
H   35.821144   41.993320   50.240303
H   86.537384   18.236870   97.098076
H   21.953888   62.182629   70.236916
H   85.918655   32.482414   55.754494
H   21.932653   78.112099   22.966534
H   86.859200   88.618355   30.209496
H   49.785492   46.596947    6.880175
H   20.645027   60.581654   69.753304
H   88.132889   69.161308   96.278397
H   81.518188   45.343655   24.240620
H   56.827030   20.040541   11.937067
H   45.157997   85.326202   19.808889
H    1.059624   55.697083   74.305283
H   68.943794   23.479303   82.059372
H    6.242193   41.479706   57.372440
H   16.706047   92.399643    1.145358
H    6.359154   68.212448   67.657196
H    7.728743   78.833817   73.543137
H   94.411194   64.766769   55.936638
H    1.387345   42.778744   43.648827
H   36.429497   74.326340   78.829681
H   60.346439    6.506270   17.265160
H   18.111195   10.815449   89.417915
H   86.554214   28.436657   85.885880
H   47.726273   72.020721    3.212804
H   63.242165   97.323677   57.289196
H   33.085773   70.613159   91.924202
H   18.846363   84.163826   97.773643
H    2.422217   98.857765   39.762878
H   75.817131   90.814293   96.566574
H   39.229652   93.224617   26.308649
H   37.387192   56.345390   48.443569
H   62.980103   75.908447   26.562187
H   86.572479   15.964424   33.350155
H   20.755238   59.482361   36.067310
H   97.831970   86.747185    4.700874
H   65.202904   29.765961   18.701025
H   10.085057    0.583484    9.439819
H   56.721554   85.471558    9.853983
H   20.743866    7.941573   95.511963
H    9.404413   63.883595   71.873405
H   42.900913   25.080788   45.645569
H   30.282286   51.989979   99.784065
H   90.326027   72.732605   94.802139
H   74.105896   64.477524   17.841259
H   44.266426   25.237494   74.748932
H    4.491383    3.331676   94.824219
H   50.836197   37.126778   87.994972
H   74.661804   50.746742   88.225975
H   80.213432    8.402474   39.901779
H   81.740791    0.187529   14.796654
H   11.530857   71.747437   32.333096
H   88.434288   46.516922   99.534538
H   67.963562   10.334916   33.593842
H   43.749584   89.417084   89.630478
H   79.547043   62.156834   10.231775
H   63.945442    7.384479   63.434391
H   85.699783   50.801922   89.415024
H   76.081497   17.844891   84.407593
H   92.900452   21.210838   11.572615
H    7.692322   88.033951   83.289246
H   44.239964    0.185329   57.216194
H   52.890099   61.132225   97.271286
H   36.605667   85.598869   37.451504
H   37.630718   95.759315   83.377480
H   83.871460   41.196186   64.580887
H   32.465584   68.238884    7.300501
H   61.287918   68.639648   45.890366
H   42.972401   78.715385   97.567078
H   81.011299   27.823086   15.283899
H   70.515282   32.474968   67.273216
H   82.071968   19.784433    2.839028
H   97.739548    1.203766   55.145592
H   71.205620   53.415684   63.059368
H   51.996925   60.744606   64.421623
H   26.376053    1.681584   99.733276
H   49.958157   30.381699   49.270935
H   51.413990   67.301292   40.681648
H   96.720940    5.050352    4.874704
H   37.231693    7.098013   56.643440
H   92.897873   49.361069   36.936867
H   82.026878   45.796474   18.203880
H   25.562311   53.412445    0.214362
H   46.217106   89.999016   95.500854
H   92.725876   43.903919   16.662561
H    5.342020   66.138046   17.106180
H   16.470566   50.282654   15.603600
H   68.227257   69.708549   34.083488
H   21.391649   19.311764    3.263742
H   91.978630   74.578178   12.300198
H   82.583054   54.144215   55.018223
