100
TIME:    8.592, STEP:  8592
H   36.279778   34.093590   91.279800
H   63.186234   70.453171   19.857689
H   27.459505   92.047256   22.483078
H   82.918747   78.659660   69.207222
H   18.207415   61.443943   32.739899
H   94.778320   91.899742   29.640205
H    2.664180   41.511398   62.358753
H   44.572037   31.919069   19.304443
H   42.420113   60.206909   59.252613
H   40.082008   39.753391   44.132271
H    1.048124   11.960235   12.124937
H   27.908386   54.363110   81.341347
H   95.866226   41.924156   71.257217
H   29.656363   78.592934   11.094433
H   84.964424    2.553032   37.711235
H   56.057770   60.241234   19.829792
H   33.189583   50.263935   55.552010
H   84.797104   76.752312    1.686354
H   79.087830   38.798824   16.022388
H   61.029575   23.353422    1.315942
H   54.415260    0.855808   24.042974
H   86.103752   55.489990   87.590134
H   71.026619   24.747446   86.522568
H   20.736868   39.613495   68.958389
H   22.285042    4.770897   99.993813
H    7.094986   72.811325   82.336945
H   21.180815   85.317947   70.448654
H    7.574129   57.485218   50.779564
H   97.995232   28.625200   51.023216
H   30.447777   78.187302   66.427948
H   54.206272   92.517189   29.607384
H    8.261454   15.125408    3.859593
H   75.566422   39.850349   71.832169
H   41.135025   86.317230    9.784513
H   67.124550    9.135002   47.797466
H   19.525347   58.394165   92.414558
H    3.883987   89.876717   85.481407
H    8.869768    1.712409   28.754852
H   82.401237   94.213463   11.683868
H   53.922493    7.828670   14.034860
H   48.048874   50.993126   44.768276
H   76.126892   75.296692   18.598061
H   85.229950   15.028641   22.082668
H   30.715900   56.862762   20.815083
H   11.363792   92.900444   91.351494
H   67.216698   26.791092   18.067251
H    8.865415   92.099800    7.941679
H   56.712032   83.864807    0.201847
H   16.184265   20.861038    1.734486
H    6.129915   61.509174   82.780266
H   42.911625   40.141670   44.000732
H   22.700209   66.466003   10.024806
H   87.091103   71.828064    3.862082
H   77.719299   67.022141   10.957820
H   56.687202   11.566331   73.423065
H    4.297085    3.495773    0.134829
H   40.946945   41.628059   73.158119
H   86.278015   65.478859   92.244041
H   67.909294    1.810493   51.878616
H   92.035896   88.197586   19.233665
H    1.690104   79.002808   44.495602
H   93.971031   47.968948    6.593140
H   57.372547   20.980371   44.291229
H   33.036724   88.567291   93.865158
H   73.355698   74.615875   95.704086
H   73.528816   15.139430   54.210453
H   98.215775   45.409191   81.883530
H   86.857437    8.922666   76.949890
H   85.126160   32.420006   21.356995
H    4.523899   80.197769   83.620117
H   49.194706   10.800208   59.087166
H   65.735931   66.311913   85.835983
H   46.776993   93.316032   41.451717
H   41.064404    5.632680   92.646645
H   76.356628   40.966480   52.752827
H   28.777201   58.240639   17.797106
H   47.119949   82.141113   43.123184
H   35.644428   88.915276   88.950134
H   73.529793   28.281307   13.542955
H   78.165794   40.972893   80.712791
H   79.017952   18.170542   93.515045
H   86.032883    0.191066   68.196358
H   61.338661   50.806797   48.202282
H   41.265022   47.395485   78.670525
H   33.971817   11.440195   14.855473
H   53.548946   24.651550   38.437866
H   40.995106   78.643761   33.242989
H   94.212029   17.533428    6.492217
H   33.994389   15.783689   57.919319
H    6.690158   55.779739   31.360781
H   75.642723   37.373531   14.909446
H   14.019892   41.679596   97.241356
H   36.217167   85.319206   83.437134
H   77.648605   34.439564    6.144018
H    8.039429   80.110825   13.521730
H    3.585565   56.443054   23.661171
H   80.609947   60.755974   43.055107
H   21.692766   11.592816    6.395716
H   99.410149   73.904533   25.367245
H   72.892563   58.146809   70.046219
