100
TIME:    9.688, STEP:  9688
H   62.162018   33.585640   90.276382
H   32.916458   29.842564   88.964348
H   46.298679   70.897514    9.617386
H   83.102707   33.505852    9.129649
H    8.386461   49.292908    3.025167
H   77.787109   90.712364   38.180862
H   45.221478   15.517734   48.067394
H   58.428604   26.737171   18.673302
H   15.478340   54.830276   90.262291
H   10.143652   55.490330   87.045113
H   99.100800   56.058746    6.550059
H   86.077003    9.299858    3.327074
H   25.978165   75.586296   62.340080
H   75.389847   75.214760   94.500496
H   98.276436    4.652901   85.004173
H   11.989098   64.381027   28.852455
H   45.055733   22.757050   55.325211
H    8.239272   23.420647   63.690575
H   96.162659   84.776672   73.765854
H   31.504002    0.078323   75.936699
H   89.376572   91.746773   94.293915
H   91.178345   56.944946   94.255615
H   56.393440   15.837893   55.165756
H   18.902626   52.724823   87.559219
H   83.086411   17.853271    8.084068
H    1.925083   40.501266   79.198341
H   26.671547   39.758320   92.189377
H   15.096638    8.642797   87.006004
H   21.827541   28.062914   99.215836
H   72.474113   51.061569   53.556618
H   97.338417   90.797623   42.895370
H   77.463608   84.842316    2.397405
H   52.767990   59.662109   70.568504
H   87.442764   85.875359   63.611305
H   39.848305   26.152412   14.478074
H   14.798685   44.239895   88.969490
H    9.004601   49.739998   71.841873
H   63.566723   81.660194    6.097271
H   36.138630   70.332115    5.473564
H   50.691677    5.224135    0.265896
H   73.145401   88.601685   70.589561
H   83.761772   79.596390   74.545647
H   94.662079   21.604900    1.247820
H   60.740246   75.262001   27.974590
H   16.285742   49.653843   85.137573
H   53.074966   47.694592   22.519918
H   17.434536   51.707867   18.466619
H   56.778927   95.153259   68.015717
H   48.218384   30.090137   58.017532
H   29.134169   78.198112    6.147435
H   45.226185   34.509583   51.884415
H   75.965714   64.765579   38.079353
H    9.821157   78.183044   40.208664
H   52.336670   49.137627   59.320747
H   69.421852    7.614414   82.738129
H    5.662151    2.342888   62.824402
H   10.429893   10.003273   77.396828
H    4.667798   61.975075   64.014549
H   54.352276   48.124008   67.738457
H   19.711308   72.440796   88.060829
H   70.830872   28.034750   59.049709
H   55.071861   37.767532   57.005585
H   31.787292   46.204781   69.141373
H    8.297085   94.537628   64.113815
H   16.855522   87.078346   97.769478
H    6.200796   60.654411   19.015024
H   10.281879   83.300842   34.799511
H   11.149417   71.604378   29.345032
H   39.751137   53.668442   52.619343
H   26.783218   35.247219   81.295532
H   14.386484   36.225590   45.942390
H   75.483284   29.921288   66.170990
H   75.316559   39.101856   13.347652
H   16.940563   36.266811   27.525106
H   29.150839   42.580311   35.852177
H   54.690468   28.482307   44.049522
H   46.660103   87.279099   62.564407
H   87.131889   17.254509   49.482986
H   26.088537   25.062008   25.775873
H   24.416630   81.267708   86.291451
H    0.474330   29.509165   59.021996
H   68.274529    7.305927   76.505135
H   30.660398   69.135902   52.579868
H   16.668434   41.182693   78.567955
H   80.606705   42.876953    8.611310
H   28.321346   64.912743   14.547496
H   14.194536   98.955315   85.504341
H   11.837717   29.834040   95.132172
H   56.738529   54.759727   48.955452
H    9.789159   10.684464   70.537354
H   20.496206   96.554703   38.054955
H   95.112793   24.109484   18.122225
H    6.473042   18.202444   68.192497
H   81.180885    0.750754   83.716896
H   89.090195   81.937721   38.704659
H   94.110641   13.163977   67.051086
H   93.614769   23.652515   80.022141
H   19.577227   65.821045   84.388634
H   47.198967   78.637321   33.566158
H   40.969933   30.025726   64.465149
