100
TIME:    3.993, STEP:  3993
H   47.291656   55.842865   95.490311
H   90.199074   21.237955   29.876799
H   48.390762   61.176338   76.471672
H   82.146820   68.138542   21.292711
H   59.406113   92.814064   57.437744
H   66.105843   96.882179   74.186760
H   43.696812   30.964100    2.710752
H    6.044373   34.047077   41.570255
H   55.472374    2.382641   48.742435
H   65.722420   73.716927   64.053864
H   28.835892   26.909336   55.122890
H    3.437133   23.838877    8.703253
H   89.265610   20.125675   28.257645
H   57.370857   92.768318   61.110310
H   29.071674   13.356651   58.834026
H   40.975143   62.486687    1.586910
H    3.013761   46.075954   36.886894
H   86.465904    0.520893   61.112827
H    7.460700   45.865646   73.728043
H   84.939964   21.020414   88.194664
H   27.326431   58.702412   48.865234
H   45.193146   49.384750   79.237457
H   32.431725   62.147408   18.105568
H   48.048546   84.571442   10.517586
H   86.772003   69.495453   66.029030
H   28.346979    8.632417   14.906912
H   17.757616   76.493912   79.197487
H   95.624512   42.819443   98.757347
H   97.994293   11.368379   68.421028
H   54.102295   92.012657    0.821104
H   73.206322   80.115257   93.465492
H   17.877485   42.188377   29.612022
H   51.619610   76.335579   57.517929
H   46.815628    7.788141    3.533122
H   81.515625   57.079948   67.872894
H   19.739119   98.156219    6.903831
H   62.778740   58.303696   23.097952
H   98.955345   85.876976    4.217281
H   76.527740   94.418022   57.360786
H   87.097359   38.371964   52.195873
H   62.358429   93.194366   36.419048
H   72.753036   91.065720   90.396240
H   45.634884   87.444778   89.892418
H   24.378645   79.690186   71.148438
H   10.292856   74.346710   97.802063
H   26.572483   39.077168   99.380745
H   72.929977   41.991234   63.796631
H   56.452663   36.496567   15.642097
H   81.749069    1.750239   85.191956
H    9.622684   91.511620    4.389664
H   43.239979   84.144890   95.518372
H   99.185760   93.218552   11.928143
H   91.700706   45.161499   70.963295
H   84.224113   42.057205    8.016990
H   22.865280    8.524851   34.308865
H   98.562363    8.333776   56.695663
H   49.389790   74.330299   35.755058
H   28.728752   99.797707   10.704224
H    5.196981    7.482399    4.937927
H   95.522690   34.703526   50.040169
H   11.581877   92.879662    3.070938
H   57.195244   90.775803   14.682704
H   45.145458   34.808403   59.658470
H   17.231199   63.515434   18.729183
H   90.811256   41.929813   67.419777
H   56.048805   43.768898   82.281128
H   67.202621   86.410675   59.844463
H    4.541882   45.901566   57.091091
H   55.914215   62.874817    9.797709
H   11.284956   48.979652   93.325012
H   95.235878   23.716263   14.248859
H   44.725769   19.005447   48.971050
H   46.640747   20.796665   59.370438
H   42.310162   96.694130   65.903557
H   54.688740   34.331501    4.094069
H   20.053438   63.488060   27.251640
H   29.493132   80.460251   61.667316
H   19.578732   89.628075   34.958504
H   52.990303   41.790028   62.236717
H    3.700876   91.486366   76.920738
H   89.012589   70.591080   18.641199
H   40.924675   70.304886   52.885498
H   70.435524   73.908295   10.213482
H   24.862574   53.848824   98.718735
H   57.903503   99.119164   60.675842
H   59.395931   55.725662   19.069427
H   33.838173   13.029305   13.945244
H   20.229780   85.605125   54.217239
H   38.550644   71.848427   95.533211
H   13.303411   44.993744   66.955246
H   87.432587   89.042122   17.786661
H   73.737991   95.796440    9.611216
H   41.412468   47.327660   27.789347
H   33.166462   55.438744   96.046425
H   87.553185   92.060570    7.842385
H   23.727051   38.051460   61.205299
H   45.656555   96.830879    7.547707
H   21.523176   50.235687   92.142204
H   18.495903   54.062550   10.580681
H   87.231712   76.165138   13.081372
