100
TIME:    2.469, STEP:  2469
H   50.353668   95.601524   96.885574
H   32.590569   38.610046   33.743702
H   22.194685   51.533539   94.354301
H   81.891022   30.928267    4.828154
H   73.056442   70.658752   98.760803
H   89.732307   98.533241   23.258940
H   23.570541   28.056190   83.531868
H   25.827766    2.202573   81.498802
H   92.935204   48.909149   44.672619
H    7.370008   51.834541    4.371559
H   70.594666   65.588104    1.923276
H   61.607994   47.448792   17.182917
H   86.209145   12.329573   79.730125
H   32.830757   97.465706   45.132656
H   10.532108   49.486023   32.089249
H    2.250649   95.781219   28.093340
H   25.563522   45.275917   98.150040
H   53.906151   74.633110   13.948986
H   83.720222   81.931152   93.439774
H   25.999855   53.380878   84.433662
H   17.762665   10.420086   90.230545
H   99.085785   47.361618    9.020081
H   52.779320   74.542000   61.709412
H   89.644638   66.293488   23.704185
H   41.277702   90.359772   54.778450
H   35.337963   54.039143   57.751663
H   49.174614   39.843845   48.960995
H   24.215147   71.684288   48.384724
H   64.856781   73.099037   40.460686
H   95.666435   29.732498   79.667198
H   13.226663   43.454601   14.040468
H   21.651192   84.296059   70.696373
H   44.270901   87.838829   20.223974
H   82.422035   47.453598   67.736023
H   19.399029   72.282623   75.072609
H   87.224106   78.437859   12.152478
H   16.608574   14.115667    3.012940
H   61.940788   13.764347   96.672691
H   40.856194   27.620459    5.048084
H   30.641558   81.043999   32.289623
H   66.510902   40.900372    0.513213
H    9.721558   22.667519   18.797033
H   32.507778   78.305801   79.811455
H   21.696653   54.152374   22.140051
H   42.487988   34.476643   67.389992
H   46.234074   10.009174   93.195076
H   61.020824   59.110443   49.157990
H   56.371273   20.803999   21.345619
H   37.200645   27.966908   45.985397
H   77.667656   68.326988   10.980236
H   43.356251   31.277903   79.449585
H   25.121058   34.634167   11.975903
H   60.096550   36.324829   59.475258
H   19.517857   66.926414   40.765961
H   44.203682   74.951401   21.356215
H   96.655502    9.937149    8.576218
H   52.774601   18.305351   90.809807
H   42.209808   43.721252   49.960403
H   85.001671   43.090481   21.936399
H   96.091003   17.563093   93.386360
H   15.446869   63.749989   21.893490
H   11.283752    4.961987   83.640244
H   41.703632   38.786400   64.175217
H   12.580744   55.225243   60.110378
H   30.320263   63.650265   25.494009
H   49.670601   19.531593   92.171898
H   89.475685   33.722897   86.265152
H    9.815113   58.742065   84.235077
H   79.957298   72.379738    5.380191
H   80.405334   72.327705   96.534119
H   43.631157   27.409189   32.532795
H   70.385986   69.583755   37.390236
H   46.008560   96.180748   98.439201
H   75.855980   93.136017   56.468544
H   81.211449   32.157215   88.564560
H   84.026955   65.813835   29.797569
H   91.124084   12.550020   34.715473
H   47.978436   89.278847   50.794651
H   79.909653   46.266499   45.226128
H   78.440895   74.488052    8.214658
H   59.198582   54.824596   27.554729
H   26.575233   60.352005   80.321022
H   74.015549   48.467987   65.059937
H   20.014767   23.437105   37.913940
H   32.110275   94.446274    8.410565
H   94.465088   99.744041   13.238187
H   32.053658   23.836517   41.274826
H   95.701187    7.620363   70.069557
H    6.920826   56.702034    8.000313
H   48.046093    7.692543   12.479299
H   25.064301    6.751148   85.602493
H   60.971767   81.192680   80.567757
H   43.699421    1.614013    9.923571
H   85.865974   62.997349   93.290794
H   13.903069   28.571594   72.821922
H   97.850830   98.233833   39.922012
H   66.624741    9.371325   95.194862
H   15.930459   37.259735   16.530239
H   91.096123   47.493183   38.233597
H   92.574539   15.285027   59.885773
