200
TIME:    0.132, STEP:   132
H    6.152523   62.833424   13.492844
H   27.001677   31.301399   85.512810
H   20.401356   64.411011   40.028618
H   14.202031   75.711433   47.323868
H   16.356838   80.992004   55.211281
H   93.132019   55.746284   68.746452
H    1.794530   55.380760   47.560940
H    0.468401   84.222687   28.905872
H   83.042458   89.125336   50.354076
H   14.663021   76.411705    0.332382
H    8.429245   92.287056   89.548767
H   30.331207   39.140167    7.596250
H    8.523448   83.423592   65.718071
H    9.508617   52.751278   37.061581
H   24.836187   71.113197   43.244324
H   32.448383   30.416241   56.652794
H   79.126785    2.660372   20.675617
H   39.126801   77.975174   45.443111
H   61.432072   33.611797   40.893974
H   89.712654   81.187828   41.657337
H   56.788963   71.366989   30.788441
H   92.433388   44.686256   74.736588
H   98.239311   63.326706   51.727608
H    6.334004   87.095589   91.926949
H   98.552238    8.360283   49.264080
H   18.750494   57.543629   10.523535
H   96.804512   56.629704   44.739517
H   92.031769   65.674202    0.447097
H    6.519858   59.812447   38.970764
H   97.929825   17.871164    2.361709
H   13.502495   46.937168   16.062771
H   33.889996   60.975082   90.944160
H   29.732826    6.661621   71.859970
H    0.000961   63.460091   36.402573
H   53.171238   94.263657   35.040592
H   36.589104   52.384399   78.238045
H   83.164673   76.760025   85.144142
H   38.257145   41.961628   20.023331
H   57.067352   50.267941   42.030983
H   91.118484   40.132610   67.915131
H   80.472176   10.268822   97.939316
H    7.963701   45.371582   43.033516
H   78.646439   90.262917   46.317997
H   37.521866   57.988945   14.885749
H   25.087042   73.000076   40.466515
H   42.579613   16.649200   41.513302
H   77.938934   31.503334   93.810905
H   92.745125   65.552254   51.530228
H   82.903641   32.850613   61.088467
H   65.982040   17.314123   10.281649
H   80.777390   71.863091   32.148869
H   25.266642   33.839092   61.219269
H   49.264427   97.512962    6.515263
H   24.013962   79.904587   80.103828
H   81.770309   78.786819   94.266182
H    6.690138   75.010674   75.111725
H    5.738702   16.336769   50.813099
H   66.228745   56.068745    7.252707
H   30.460070   72.391159    4.514383
H   45.601170   96.595619   68.990723
H   50.769295   17.483515   45.391914
H   87.996231   16.169039   48.238499
H   68.471939   22.969172   88.528534
H   21.509300   64.998253    1.256194
H   69.612259   74.469025   13.513247
H   42.976166   12.365330   30.922012
H   90.209328   25.440071   83.603798
H   97.946220   91.204384   85.133339
H   12.681000    4.393783   63.346779
H   45.858654   39.747616   50.988361
H   58.512543   74.724182   70.392487
H   35.175602   26.660631   45.520824
H   74.066055   23.795971    3.112005
H    4.346889   11.338563   57.428753
H   77.829971   99.123207   72.690872
H   50.583931   22.889545   63.583206
H   95.884064   25.929613   73.673225
H   30.555431    4.003317   51.660591
H   10.709469   24.881620   37.330456
H   69.903442   91.269272   99.383453
H   38.784328   31.927359    2.736716
H   21.887688   70.532356   91.195976
H   11.421073   12.481631   93.439659
H   28.195940   58.328041   90.331512
H   42.754120   98.181824   60.842850
H   21.624481   89.553070   30.031036
H   31.014780    2.559061    1.523732
H   76.229622   22.563898    7.368673
H   62.384415   71.782051   76.773293
H   23.985069   81.206306   56.053677
H   45.770065   33.960468   81.234863
H   84.807716   87.587891   96.011276
H   42.129215   18.080139   98.805725
H   64.870850   98.313744   66.139183
H   22.388275   58.387108   63.441704
H   73.744606   25.294640   34.139545
H   77.840569   18.014662   93.677887
H    9.863680   26.760479   47.571018
H   39.465111   70.859909   52.498512
H   65.326591   96.172318   27.224039
H    5.047716   77.440308   63.854210
H   86.556252   75.022629   66.460335
H   20.940657   41.116791   28.993526
H   16.686304   67.740082   85.873581
H   25.481905   28.892029   21.586056
H   83.147499   32.060535   48.947090
H   60.542248   28.755762   56.761856
H   65.387306   30.127724   22.917715
H   70.051903   41.452919   93.910240
H    0.897407   29.566202    5.008685
H   45.773598   97.005287    0.719865
H   81.657379   60.629066   89.280968
H   58.969818   79.021393   96.284523
H   63.590019   21.725693   77.739014
H   67.454323   77.471313   30.559441
H   18.445980    8.956842   74.062225
H   37.015339    6.921926   82.921066
H   41.319057   21.680607   36.137321
H   14.760802   53.658833   88.877365
H   67.932503   44.519344   45.313934
H   39.427376   21.041752   91.058800
H   22.949085   30.038471   45.011330
H   29.632635   26.377499   20.825331
H    5.668509   71.205513   22.594612
H   80.148003   11.626100   96.385063
H   43.765621   59.397243   27.616659
H   98.071144   48.685654   75.225723
H   77.791008   86.722923   34.090435
H   91.138649   56.393017   87.351479
H   62.510483   24.661240   64.661674
H   44.249306   89.041901   99.284073
H   85.845421   84.980209    6.780105
H   92.790413   77.340248   96.571777
H    6.216371   10.233887   48.377609
H   99.090805    3.322910   61.379684
H   65.234573    1.765458   85.272697
H   68.713913   86.289314   49.962227
H   90.297142   67.592628   84.904823
H   43.490295   42.823288   71.575630
H   43.389442   14.269744   98.458405
H   45.270885   66.244965   11.421338
H   62.210159   37.729347   43.729237
H   58.477318   54.773151    3.026967
H   62.661873   30.437248   76.334755
H   35.225430   73.348892   45.536991
H   41.982994   60.114784   35.018669
H   42.176933   97.250755   48.055195
H   45.601448   77.438866   69.444603
H   62.298069   69.301071   99.018097
H    6.005956   87.475266   94.036354
H   80.026985   59.475780   52.159519
H   29.241213   10.098036   51.536804
H   71.158569   35.876888    7.256068
H    7.054923   98.663559   78.621376
H    9.329929   51.026852   58.799156
H   60.296013   43.261112   50.738281
H   58.180767   57.644955   79.476974
H   44.510590   38.392715    7.193896
H   17.324751    2.141272    6.609999
H   64.890205   61.350433   74.096481
H   52.895081   88.797050   86.287437
H   48.674847   23.615986   36.479599
H   60.570492   39.278549   37.276958
H    7.310434   17.006947   75.819641
H   59.988274   18.423735    8.763369
H   10.052955   67.875221   62.892200
H   76.759544   99.313789   51.076786
H   23.537868   26.018791   43.546772
H   92.605461   28.521429   37.111954
H   21.544350   11.274728   91.619537
H   81.428223    4.349449   35.985138
H   49.893898   69.458221   57.126465
H   35.586227   82.094864   93.462845
H   72.552574   77.133209   71.742386
H   76.457520   95.848984    4.309265
H   97.572800   47.077477   23.183130
H   36.527225   49.547386   82.390114
H    0.772825    9.097862   63.499218
H   78.363533   23.890215   70.397995
H   91.438011   53.296593   84.861473
H   83.389587   81.319206   44.230362
H   17.049284   29.974209   65.673447
H   70.607010   90.277817    3.932486
H   49.129295   25.020319   73.217079
H   84.126328   93.018677   78.841782
H   96.999443   35.312454   83.413673
H   27.591612    6.374545   96.872330
H   95.609619   62.649967   21.747593
H    9.745979   60.691792   65.309097
H   47.649628   58.860806   64.338516
H   42.660954   34.597511   80.072701
H   48.538277   81.994202   26.000013
H    1.701544   14.954665   55.332230
H   36.990467   59.220459   31.136671
H   88.600845   59.079296   22.169563
H   75.064468   10.118435   31.046024
H    8.743392   82.614525   99.821487
H   32.048218   99.552635   50.012535
H   13.353515   11.309702   82.847206
H    9.134212   38.651600   99.249252
