100
TIME:    9.990, STEP:  9990
H   41.738678    5.891531   89.999893
H   24.576725   46.208424    8.005813
H   51.489765   92.624962    6.071987
H   83.153397   21.062822   92.576309
H    5.680323   73.499542   94.836708
H   73.105225   90.385185   68.089775
H   29.394581   35.911118   71.684189
H   34.692001   52.863102   90.944817
H    8.054604   25.794048   71.253654
H    1.893940   59.826603   98.869637
H   71.009491   68.210449   77.458977
H   74.552010   24.436749   81.830177
H    6.720429   57.306595   32.329475
H   60.436386   74.283913   17.483089
H    1.944823   77.676788   70.479271
H   99.845612   37.967087    3.783176
H   20.770760   42.731094   82.817459
H   14.697600    8.725529   53.223152
H    0.867560   97.444489   89.687027
H   23.368305   93.663788   96.498283
H   71.455460   61.682995   86.096008
H   20.131378   57.345856   68.537506
H   52.360931   13.376747   46.568268
H   90.842789   56.337616   65.131332
H   72.284897   93.902969   10.313263
H    0.500443   31.598366   50.778782
H    0.629700   27.203844   98.179977
H   89.614571   22.739140   96.987267
H   28.394161   55.462833   84.939774
H   84.054405   43.587143   77.565102
H    9.224183   17.878716   19.002090
H   96.532150   76.496948   74.439751
H   74.040443   37.566010   97.775047
H    0.202752   58.198784   50.888191
H   32.332405    3.286806   32.853039
H   41.050587   67.895477   88.020210
H   37.970070   38.680428   95.638382
H   51.085537   76.135017   27.407707
H   23.390171   63.751671   76.207375
H   22.247448   76.952789   24.026693
H   52.505478   98.965424   77.704552
H   58.310417   80.785294   89.955315
H   97.261078   23.417057   23.060909
H   41.457424   80.330971   57.501339
H   90.065277   37.700291   10.965369
H   49.178772   53.454784   23.746840
H   19.796215   68.133057   21.366301
H   56.797359   98.263763   86.701782
H   57.044968    5.084974   45.926727
H   35.472687   82.797050   85.032448
H   46.908161    5.480515   52.451218
H   90.642685   36.741150   18.254274
H   16.085360   79.934143   22.668339
H   45.343796   44.209206   72.647530
H   45.376503   34.080467   85.304871
H    6.038292    2.025213   52.543610
H   29.574638    1.288893    6.119559
H   82.180130   33.455208   56.235985
H   78.171822   60.886292   44.552898
H   99.782860   95.652069   79.471230
H   89.880981   13.990248   35.504345
H   44.353294   34.956558   43.340103
H   52.314327   25.635927   48.450760
H   29.035145   96.182739   55.913635
H   28.842484   62.959164   25.893854
H   87.648651   45.641045   36.871624
H   86.051735   93.742920   49.379711
H   90.288002   88.875740   43.782379
H   54.803673   31.968643   33.677525
H   32.916672   50.414959   80.654999
H    4.795283   15.675535   42.320381
H   50.614319   19.893944   88.308563
H   55.625916   24.163919    5.603649
H   10.293301   17.153595    9.582106
H   43.698555   43.024998   58.750095
H   61.830803   47.838650   23.729397
H   74.087837   61.141392   67.919701
H    1.320254   97.508476   66.162498
H   40.569664   24.174938   29.146738
H    9.606925   64.816597   60.273811
H    6.386032   32.633495   77.072136
H   90.937431    9.266595   51.239792
H   49.763420   74.186440   81.340271
H   37.445148   67.025223   50.984634
H   65.902084   23.985825   79.335876
H   21.369946   76.004570   35.519245
H   34.364429   76.997459   99.904823
H   16.694218    5.667974   92.003235
H   63.005619   37.944572   46.485481
H   83.088898   98.258896   81.334259
H   32.855278   12.861571   44.432640
H   17.457735   46.822678   23.875505
H   25.831638   27.264380   91.546623
H    8.663735   18.944805    6.697570
H   83.869156   54.887077   45.644539
H   19.054672    1.238780   51.452484
H   69.643150   40.983231   62.654007
H   18.994295   80.765289   78.324303
H   32.812309   79.941429    8.269695
H   59.727425   22.275963   35.371601
