200
TIME:    0.471, STEP:   471
H   16.569384   61.708355   19.289534
H   30.023197   36.250500   99.274857
H   13.296089   79.248985   56.726189
H   25.629187   79.673744   38.459103
H   12.757557   89.583908   50.337276
H   82.103760   46.545292   58.712040
H    6.706000   55.140228   54.122547
H    8.065207   98.861511   16.872810
H   96.809677   84.043129   42.084175
H    2.729597   71.663139   86.960899
H   20.245260   99.528877    0.261489
H   31.733017   48.188564   23.748909
H   16.843784   94.674278   51.824120
H   93.485321   54.181538   53.397060
H    8.469173   73.722839   42.410221
H   22.567177   16.448578   49.339848
H   95.074310   18.537371    4.216639
H   31.076815   94.271858   39.407829
H   72.711205   21.338934   45.884365
H   90.791168   76.532372   28.516018
H   60.857315   88.289574   15.257337
H   84.886375   57.643944   61.672859
H   88.087830   60.861900   43.593491
H   13.501067   90.165237   90.861740
H   13.286966   21.994486   37.167652
H   18.469873   72.587959   99.327164
H    3.369148   63.431843   58.369659
H   99.811554   79.658676    1.339097
H   20.797867   49.508369   36.985729
H   82.610786   26.952538   90.635223
H   13.059903   61.100101   16.477236
H   27.725395   68.920395   99.290359
H   21.541809   13.956140   76.000740
H   88.781303   63.829941   42.327934
H   36.903004   80.255905   32.461987
H   25.515583   44.655048   82.125351
H   92.894577   69.443199   87.689125
H   21.488855   50.730698    4.781237
H   44.520897   38.128838   49.566357
H   87.867424   38.738560   54.672943
H   80.573044   94.432869    9.191687
H   24.837145   38.262959   32.981609
H   72.542618   82.475372   58.905834
H   36.766647   74.453270   27.009979
H   36.669689   83.342949   52.700020
H   37.809063    7.826764   45.200165
H   84.327255   14.894971    1.243924
H   84.492035   65.547081   39.343277
H   96.013924   19.986034   61.332878
H   53.850906   18.843958   95.939644
H   72.713104   67.572311   18.713997
H   12.307754   39.673931   68.508141
H   58.406391   87.812973   10.949195
H   18.968611   87.058472   85.123962
H   67.421158   71.247566   83.302582
H    2.344398   66.659302   86.212402
H    4.771240   17.619606   47.176670
H   69.932419   63.949398    1.134170
H   23.306831   78.939835   12.713482
H   37.760605   94.692055   62.723961
H   49.671383   10.869534   35.487431
H   94.087730   16.972105   50.836731
H   77.811302   29.991798   77.091629
H   29.722948   65.481903    8.825047
H   75.061729   79.522781   27.375572
H   29.678257   25.535656   37.015488
H   77.546486   18.289419   90.607674
H   96.047829   91.975121   91.844955
H   24.739189    8.974881   59.056000
H   43.907242   45.656166   50.970257
H   58.363827   80.587471   79.460281
H   25.648294   17.749958   43.147835
H   84.825333   29.656673   91.760628
H   15.390989    3.887156   67.297462
H   81.957809    4.610932   56.751106
H   59.152557   10.921280   61.367985
H   94.451218   38.549778   68.878105
H   17.999277   10.176323   40.068504
H   13.286781   39.985001   29.822239
H   64.795372   89.378639   83.306610
H   53.172276   26.197914   97.704269
H   36.793762   64.436295   80.716026
H   10.098471   16.200176   83.520950
H   17.141171   69.413200    1.380408
H   30.682262    1.766570   51.235798
H   31.175280   77.692001   22.974140
H   46.208378    3.265462    2.300910
H   73.410484    9.946809   20.155005
H   72.756088   72.619499   78.002747
H   22.287121   96.401199   52.324139
H   31.559389   36.886940   79.727013
H   82.446365   90.562210    3.408216
H   58.233215   14.256845   89.150826
H   49.669418   86.134552   75.447510
H   30.978239   53.801483   77.560669
H   59.705818   32.873981   18.200512
H   82.439125    6.289353    8.277804
H    0.544362   32.028255   50.780697
H   31.783607   67.464012   53.699879
H   71.220917    1.681020   27.306803
H   20.172575   86.813293   79.817268
H   99.162193   80.151390   64.590393
H   27.967810   28.727932   33.730865
H   32.975838   68.365982   99.335609
H   25.032524   24.437016   32.576813
H   96.568146   15.463184   33.075863
H   76.600983   32.965073   55.184174
H   63.390236   43.143604    9.809218
H   78.667084   37.173779   10.302616
H   11.787276   24.839621    6.667838
H   50.233784   94.059418    0.958376
H   95.269417   69.154236   93.142410
H   53.081959   82.955254   88.910797
H   62.441673   14.417273   68.997101
H   56.141563   91.587692   18.673155
H    4.611248   99.039574   89.355400
H   23.077419   11.695421   86.873032
H   39.599125   38.366539   29.361046
H   27.635078   66.386330   72.122894
H   76.878738   51.285275   57.959965
H   42.965523   23.294476   79.950363
H    8.321899   22.007809   54.983059
H   37.805550   12.079986   30.881763
H    0.673871   59.006161    7.749348
H   70.004280    3.232615   85.173172
H   56.185345   68.672592   21.071217
H   89.644768   50.268509   62.133545
H   70.375900   89.381706   36.953541
H   95.310455   44.122009   79.626007
H   78.941658   23.054461   70.437027
H   57.933762   76.937714   12.239155
H   72.833420   88.342484   14.774533
H   91.683449   93.833496   99.093483
H   89.593681   18.925652   52.550419
H   15.837746   97.193283   45.802010
H   56.205574    1.330383   80.278427
H   69.275154   87.153160   66.838257
H   93.188698   57.008369   79.548462
H   52.351181   47.564095   71.495453
H   43.573074   98.010994   89.038864
H   62.053806   56.275532   22.371872
H   46.604034   48.029545   51.631874
H   47.579670   61.012756   91.592720
H   47.128166   18.165888   81.952339
H   51.160023   62.105965   56.622150
H   54.404011   65.955658   18.782764
H   50.194664   95.766182   45.627892
H   36.344849   64.819992   67.499657
H   71.360687   55.147671   95.648064
H   16.825491   91.196777   81.352409
H   68.077980   65.233032   49.600311
H   43.511356    0.718035   40.913311
H   86.906944   23.201115   95.355492
H   16.016352    6.445006   70.244141
H   22.772560   59.979553   64.932526
H   70.359558   44.101681   61.167797
H   61.729259   67.811150   83.491013
H   49.330280   32.953590   15.135992
H    1.809381    0.863934   94.038132
H   61.089844   47.518555   87.105896
H   56.225025   75.024658   77.273956
H   32.758358   21.859198   33.542782
H   75.162758   24.498438   37.136002
H   19.753857   26.965744   61.315548
H   56.742386   29.926592   12.094283
H   15.893613   57.089249   61.039070
H   70.922119   93.830696   54.670540
H   23.834007   41.442577   57.564869
H   97.211777   27.418991   36.311474
H   37.014690    8.716490   87.802063
H   74.951965    8.380944   35.956688
H   38.182838   56.867062   58.167477
H   42.136196   67.528458   83.924332
H   68.381439   69.012558   79.598701
H   60.701385   93.298828   88.369812
H    8.039351   48.908623   23.508366
H   33.044685   60.137257   96.571152
H    3.777293    9.421158   67.833969
H   69.694038   16.009562   66.433098
H   75.312027   56.933022   89.643661
H   77.200417   93.467361   36.348415
H   23.886986   30.388027   78.049202
H   54.999702   89.924980   10.643044
H   56.511379   25.647865   85.688530
H   88.510216   78.315193   77.445145
H    4.096332   38.172974   85.110329
H   39.395538    0.567717    4.383549
H   79.323280   77.009346   33.609394
H   99.928780   62.203522   69.183472
H   53.814228   57.016727   68.621536
H   58.855476   23.381741   77.651863
H   45.759228   91.206833   21.682077
H    9.231533   23.019598   63.097790
H   31.067795   72.750191   37.968636
H   76.967377   43.937424   21.060659
H   75.892105   10.950274   26.401560
H   10.996762   91.858192   11.263593
H   22.196106   92.815155   40.452038
H    8.832872   12.258251   67.685936
H    5.598439   27.166574   94.539482
