100
TIME:    1.627, STEP:  1627
H    7.295264   72.817154   97.656448
H   56.012291   92.958138   80.630943
H    7.721510   90.957359    4.236367
H   81.749695   65.617699   50.982677
H   80.598160    3.168741   21.589607
H    2.786578   99.445442   39.873013
H   67.697807   71.201408   17.686378
H   92.007301   29.358189   58.809174
H   13.633232   29.864075   97.672554
H   30.377386   39.744667   71.403069
H   48.915451   31.708195   83.028336
H   93.741074    5.243850   77.117577
H   39.768822   63.271614   63.417458
H   74.522194    0.060996   81.055672
H    0.289584   24.696835   72.565201
H   36.106735   69.427727   97.986099
H   93.259109   89.593094   21.489740
H   35.912666   15.579863   43.141403
H   70.602516   46.609108   49.078136
H   48.682823   71.261337   27.106333
H   67.728149   94.243896   13.085102
H   18.355350   46.247391   80.719215
H   64.021233   81.389931   85.799225
H   67.875587   56.195042   86.239059
H   71.393181   57.137665   48.566490
H   39.198757   79.128540   36.673859
H   21.780392   74.845963   32.252300
H   95.260788   32.382565   20.551920
H   46.548523   96.706451   80.263481
H   63.379665   50.571793   12.730563
H   80.103310   67.946152   80.665680
H   68.486969    7.561780   48.644524
H   84.961502   49.442940   44.369965
H   46.846199   24.617775    3.208891
H   40.330193   35.931526   23.801674
H   14.015977   12.292799   15.046468
H   35.849655   44.952492   36.666447
H   96.745369   29.175404   37.254047
H   77.577408   45.776344   86.186691
H    9.948576   59.869770   66.044266
H   24.053963   12.009646   80.675949
H   85.395691   84.878502   79.239349
H   25.255140   73.256577   18.993561
H   75.464500   40.038956   39.813457
H   15.525703   67.695602   95.336502
H   57.096973   93.949318   89.777534
H   53.259693   13.507430   41.525826
H   56.326305   12.134878   69.247475
H   12.590489   97.701988   79.573257
H   60.013187   55.513378   69.869225
H   43.420490   12.567080   70.571686
H   84.202461   12.765268   67.253616
H   42.629829   31.442627    8.375538
H   39.014545   80.660820    3.612283
H   11.233917    1.136011   14.212379
H   95.601974   10.822048   37.239883
H   99.397446   42.600731   10.728737
H    4.907448   23.237606   71.647659
H   18.595268    7.512816   86.577866
H   51.652569   52.845371   17.333824
H   62.333172    2.909986   87.542137
H   41.165741   12.800812   21.737427
H   84.591400   96.203667   21.939796
H   54.763374   50.644966   82.967888
H   96.899818   30.897976   47.080845
H    1.396220   61.390053   42.386288
H   57.031448    4.613490   45.614391
H   67.977730   10.586709   43.982609
H   37.992073   32.880478   58.191162
H   63.343567   29.976023   98.307129
H   70.367638   84.699425   42.634129
H   39.813473   97.527939   75.743706
H    0.907686   37.827808   20.029568
H   94.382652   46.420288    6.511147
H   40.615784   30.958727   24.735821
H   64.125557   11.847643   86.453056
H   14.675661   85.529770   19.822130
H    8.419749   44.335495    4.292015
H   39.539650   48.736179   35.831398
H   19.734512   20.343660   80.753731
H   42.721149   46.113720   77.230782
H   63.399754   54.853104   50.728958
H   20.742939   34.412384   84.863647
H   62.094341   51.386089   14.821480
H   73.107925   47.115112   90.033127
H   13.843983   68.819145   54.767113
H   75.818367   85.056763    1.124649
H   82.146652   75.033096   78.831261
H   89.446724    3.583869   14.888393
H   22.489502   42.336906   82.378502
H   90.606056   61.283375   67.820999
H   98.668480   17.871820   64.520729
H   89.675880   76.381027   44.784470
H    4.482870   11.921784   36.519035
H   28.462952    3.992093   53.472984
H   28.305145   31.481916   83.412155
H   33.458359   61.050655   43.619034
H   12.838933   30.090607   30.004475
H   31.205410   43.863651    8.765507
H   40.283585   36.912037   40.982735
