100
TIME:    1.493, STEP:  1493
H   16.357000   85.105667   97.779129
H   59.739738   85.693398   72.178246
H    5.418053   81.316704    5.809491
H   81.727203   71.138329   58.328182
H   81.798386   92.428062   25.222847
H    4.864572   99.590614   26.602240
H   74.721275   62.153500    7.207395
H    2.539444   17.765888   71.112434
H   16.927208   42.747589    6.107402
H   34.039177   37.820625   66.156425
H   61.379807   26.316380   95.936386
H   98.854813   98.527275   86.655998
H   48.292061   71.378761   76.736443
H   81.157173    0.474123   70.858864
H   98.659904   36.665668   79.005936
H   41.494461   81.147820    9.109031
H    4.032542   80.731461    9.289800
H   33.049095   22.096268   47.786911
H   68.514900   40.987267   42.018887
H   52.292702   74.107529   17.982981
H   75.679901    7.583905   16.722073
H    5.506387   46.070526   92.128517
H   65.810326   82.479744   89.632996
H   80.325630   54.587925   96.190506
H   76.185905   67.765236   47.577888
H   39.813183   83.121796   49.233292
H   33.335434   80.415665   29.593199
H    6.567336   26.127895   16.122637
H   43.634857   84.548798   86.597893
H   58.241390   53.888260    2.078244
H   74.832130   55.929581   91.269379
H   60.026096   11.263909   61.049583
H   75.523270   59.247169   32.298187
H   41.184486   36.898109    8.853891
H   43.660973   46.060860   15.642387
H    2.364901    1.766225   15.507031
H   22.997475   49.859718   26.107733
H    2.284073   31.627995   27.798435
H   83.601028   48.636848   99.029312
H   22.569860   72.414207   55.501080
H   33.211052    7.411694   77.518967
H   97.438843   78.865105   72.943787
H   24.100920   72.453018    9.314744
H   84.021477   37.792877   26.711977
H   27.149185   72.983139   83.869949
H   58.825748   91.393471   89.233650
H   51.844776    6.278697   40.380806
H   56.319149   10.755232   60.956310
H    8.673909    8.799751   84.918045
H   57.202778   53.473812   79.242027
H   43.430714   25.504267   69.158813
H   77.690163   25.199465   76.049820
H   39.850090   30.665649   16.158092
H   42.117344   82.846581   97.699356
H   21.901909   89.389282   13.075283
H   95.434311   10.962875   41.801559
H   90.901810   46.467216   97.984062
H   14.885321   35.892586   75.099075
H    8.027351    1.850824   96.864639
H   60.494778   42.545307   21.145103
H   53.880474    9.141397   97.990440
H   45.921661   14.048321   27.800919
H   75.502808    5.341556   31.132668
H   45.561302   49.916039   86.605370
H   91.581612   41.600788   34.601154
H    9.627922   68.051613   34.463161
H   67.782364   99.980896   39.145031
H   77.233986    2.922822   37.576633
H   31.313133   42.508865   66.595497
H   60.629257   23.236254   98.589294
H   74.622612   93.816643   44.241245
H   50.861889    1.975229   65.933342
H    9.645023   44.455631   23.465649
H   97.331078   54.900589   14.475166
H   34.155624   30.768061   14.577351
H   60.957371    3.259415   95.470085
H    2.509268   97.143539   17.451838
H    2.124186   53.097961   96.891846
H   33.116295   49.128757   34.336739
H   26.306107   27.641626   92.297981
H   40.098850   44.727428   69.221779
H   53.345051   53.977982   61.933792
H   12.264655   32.175507   72.100769
H   52.875912   39.919537   27.060921
H   79.632492   55.497269    3.022918
H   16.928379   63.897587   45.461784
H   66.868813   94.799652   94.735001
H   79.989517   85.761520   80.223686
H   86.665962   11.044639   15.984596
H   34.336975   47.850380   77.587822
H   85.122231   54.048283   64.991165
H   88.753838    7.794115   61.967743
H   81.078011   72.365280   34.417953
H   91.531593    3.793615   27.484371
H   30.780083   15.995331   50.393700
H   17.237305   36.773491   90.333389
H   44.094772   53.360622   51.325424
H   12.346932   28.949677   32.148796
H   37.588829   43.286030   19.989765
H   31.961746   40.354252   53.888741
