100
TIME:    8.229, STEP:  8229
H   60.828362   67.382622   91.612137
H   73.211716   50.782536   96.969498
H   21.219889   65.931152   26.743908
H   82.857819   93.614799   89.103096
H   21.460157   32.347889   42.582596
H    0.406046   92.293007   93.691322
H   21.688667   16.998819   33.971684
H   73.103119    0.515769   52.635017
H   51.343346   95.107773   82.101318
H   49.996712   34.541248   29.919147
H   34.813492   97.354462   47.090286
H   41.764046   36.167690    7.180206
H   19.013847   63.894363    7.332002
H   47.630043   79.711800   83.470650
H   80.555428   34.977982   55.167206
H   70.652878   91.990440   49.962189
H   62.379799   26.255398   22.506689
H   77.037048   94.415993   14.268894
H   73.432571   23.569508   96.898636
H   70.810501   31.062243   76.601204
H   75.956200   36.994572   33.895100
H   51.302586   55.008102   18.502884
H   75.873192   27.698317   96.908081
H   54.465782   35.270966   95.916412
H   35.267281   33.559540   97.312965
H    8.806988   83.512558   16.496525
H   52.483658    0.406073   63.247746
H   38.202614   40.541599   38.779449
H   90.102242   95.691544   68.182854
H   16.529804   87.171463   37.570068
H   39.918575   59.965179   58.326790
H   85.341454   25.153721   37.464302
H   49.997158   66.409569   39.130264
H   25.797138   19.583839   25.076143
H   76.158562   36.619225   25.710943
H   87.970856   29.960115   93.555580
H   69.066399    3.170469   56.878323
H   23.873043    8.355736    3.139956
H   97.721947    2.122717   46.860878
H   88.113556   41.812019   85.475403
H   72.857788   38.538818   36.216152
H    6.718608   73.873184    0.066272
H   82.105988   12.851145   95.863228
H   53.893597   50.767159   85.323151
H   42.850807    7.219879   60.288788
H   71.902641   19.868801   16.592508
H    6.027400   72.359016    4.455827
H   56.689877   80.126022   77.741447
H    5.574346   50.923637   16.215317
H   98.510010   55.984081    8.160251
H   42.936550   75.186546   40.173325
H    5.057670    0.148306   33.854431
H   79.563683   69.723267   24.944674
H   86.127411   72.943268   94.940140
H   85.589394   79.755447   70.337875
H    3.844969    3.877614   12.492218
H   17.935417   52.102196   38.633904
H   13.307698   99.759361    1.593916
H   39.278515   86.472969   79.746231
H   15.990424   60.297573   29.558250
H   78.792068   95.885498   72.797676
H    6.854652   51.347702   23.017879
H   32.727032   45.751129   69.183228
H    8.110050   86.589890    3.719840
H   58.947945    3.607002   61.899933
H   95.828590   33.185265   32.747059
H   27.340750   32.860722   64.358322
H   11.932543   88.162224   59.596390
H   67.035980   58.502876   44.124809
H   97.151451   61.963886   84.390030
H   60.724010   35.500069   63.440773
H   95.629593   78.364647   59.227413
H   70.444885   11.272261   50.759907
H   49.054325   28.606785   14.214491
H   58.870193   40.431973   25.229834
H   20.194613   34.974319   42.221870
H   14.151464   13.559097   36.684166
H   18.591711   12.649639   68.899170
H   56.122154   29.347553    9.491913
H   95.967949   60.746910   11.985449
H   71.911491   14.415139   71.819016
H   58.792900   97.836823   98.566368
H   38.376984   44.736118   13.630986
H   16.291840   16.332407   11.825798
H   51.646576   34.147221   50.043709
H   61.904438   11.317935   13.230073
H   16.751162    5.036899   15.933800
H   88.373985   46.581711   10.256065
H   26.460411   35.994179   60.888191
H   38.784657   70.714249   18.384428
H   60.787281   17.773991    7.243518
H   87.161568   14.379009   90.323219
H   12.948170   74.429649   55.365784
H   42.566650   12.416738   81.667641
H   14.316433   12.625397    5.180779
H   73.603241   70.777832   42.410484
H    9.423283   39.924019   63.931374
H   22.393442   93.631050   13.683577
H   16.702232   72.337013   55.773258
H   50.345211   67.461563    5.013871
