100
TIME:    6.153, STEP:  6153
H    1.220494   57.760704   93.512772
H   30.543514   38.286289   66.073219
H   85.528610   16.575424   51.117840
H   82.509369   79.146332    2.895179
H   40.059189   65.947510   98.873062
H   32.604069   94.542091   88.098564
H   30.491943   76.818230   71.625694
H   36.272629   20.914967   43.246204
H    2.375418   94.707428   12.777030
H    6.699903    4.731678   48.632572
H   27.917953   13.821672   47.061104
H   20.997452   32.108540   54.951607
H   51.431168   89.505928   13.628593
H   50.420830   86.110603   25.485966
H   55.340340   20.416534   55.003910
H   54.125320   73.565102   22.288342
H   29.319557   88.944145   33.520210
H   32.646038   95.434250   86.230507
H   41.101322   36.479645   87.526260
H   26.744949   75.145302   35.257439
H   99.148987   43.667141   90.240456
H   52.274445   52.252182   95.293518
H    3.591141   44.580269   56.306122
H   47.355877   10.436007   50.098637
H    9.518197   98.195282   81.981178
H   18.497477   44.761986   11.817272
H   31.498474   86.704239   22.051489
H   13.369834   43.640938   70.160355
H   44.962166    7.340529   66.316528
H   36.925785   38.553185   72.534531
H   58.216461   73.806374   22.573158
H   54.261387   82.510483   29.650002
H    3.765553   18.299536   52.107788
H   38.081230    9.836974   12.535402
H   27.824799   93.799507   99.402374
H    7.507617   67.358086    0.081132
H   69.951027   79.198853   93.297768
H    9.678740   46.351795   56.640591
H   85.352203   47.352592   48.040672
H   83.649368   36.159939   22.139284
H   14.737782   67.305077   87.307716
H   81.672592   65.732132   94.081505
H   64.240021    0.397804   45.911385
H   86.453918   15.920736   82.343346
H   22.928925   89.126419   82.638901
H   98.701591   80.275894    8.158442
H   89.804977   59.459183   84.527992
H   56.568020   58.743881   49.290684
H   44.887016   22.858650   99.027267
H   54.925419   24.384119   53.314804
H   43.079098   75.610947   18.289310
H    4.157293   92.786911   70.129951
H   36.504192   57.685913   45.512638
H   34.202194    6.808646    3.332022
H   50.884148   97.823975   52.683498
H    1.259313    6.061364   83.164154
H   86.325386   12.004596   41.189018
H   67.890533   95.812279   55.068588
H   75.550278   98.747841   39.116371
H   52.983299    0.727175   88.604637
H   47.836872   92.429214   34.659512
H   80.535927   70.670822   16.949387
H   91.787514   87.413124   11.540771
H   65.556442   75.281113   60.088787
H   76.546982   69.415237   68.571083
H   23.357800   36.389122    9.997027
H   93.901382   61.085117   64.129105
H   55.335991   69.433876   60.351582
H   63.568729    7.670982   74.328033
H   55.041908   57.621521   88.776672
H   26.647587   76.750824   88.339088
H   66.623123   47.318954    7.115249
H    5.803720   13.954567    3.982865
H   94.759407   59.994526   37.562614
H   58.830402   37.413166   67.837173
H   71.121086    1.921823   81.910248
H   25.607124   93.244728   99.866783
H   21.059460   48.391312   54.248123
H   56.570156   35.445423   86.330940
H   97.776627   73.836494   90.834801
H   31.277010   92.937271   47.739124
H    3.012686   84.373856   72.242516
H    7.064964   10.018540   15.923609
H   73.465370   38.684959    1.436318
H   52.729378   64.012932   51.288010
H    9.677303   35.063614   69.066177
H   78.099678   55.979561   16.942282
H   54.986168   12.704035   31.780754
H   83.374863   51.582771   77.867195
H   22.330561   56.126514   44.171486
H   75.828758    5.676612   63.401897
H   33.558590   58.243622   50.763641
H   79.872696   12.138997   94.825516
H   41.930920   86.468575   41.686295
H   50.210655   98.580582   57.475285
H    2.134147   52.756073   49.638550
H   74.206230   20.788237   83.324509
H   26.400614   90.909271   55.358475
H   15.598130   63.373463   29.658913
H   21.398088   20.739319    5.001924
