100
TIME:    7.074, STEP:  7074
H   38.936111   73.301186   92.669571
H    5.110373   88.193336   24.143188
H    1.366196   82.836128   40.303791
H   82.663956   41.202301   52.413670
H   31.809793   39.769634   73.900269
H   18.318844   93.544304   79.308487
H   82.221359   39.008343   43.649166
H   63.883842    0.593591   58.683525
H   79.735451    6.157107   54.804707
H   81.543495   17.957155   84.693459
H   42.248779   50.880238   58.345261
H   85.845871   78.273773   89.394386
H   92.664131   33.804600   22.112148
H    4.819389   83.271828   95.573860
H   66.526802   38.148277   10.714794
H   17.093342   93.010986   45.837402
H   55.258125   49.860088   17.362482
H   52.341801   50.618134   54.303444
H   55.442760   75.117294   36.047352
H    1.933769   55.586071   97.963463
H   44.495529   51.978905   65.239555
H   40.571609   53.474823   16.861801
H   91.294106   37.089836   29.955828
H   61.782280   21.453829   81.697189
H   76.577705   25.156311   88.782997
H   14.252773   17.559647   25.187677
H   52.080555   48.420067   40.327862
H   35.658310   86.630119    0.600002
H   64.988182   90.900856   22.780012
H   72.241837   15.758640   45.750999
H   94.461159   56.394173   49.706642
H   12.413862   57.061794   44.388435
H   68.641121   50.914604   35.078743
H   76.994942   25.432724   73.735107
H    4.903351   24.068947   55.440559
H   87.568626   39.495148   97.186104
H   58.286911   45.470825   65.868866
H   71.609535   29.494808   21.634285
H   46.477482   27.285242   58.789078
H   96.901985   49.939556   94.601913
H   51.793564   98.911049    9.005417
H    4.055698   69.343842   41.100124
H   72.166107    5.922749   12.437027
H   27.645016   31.379416   72.393181
H   43.038521   52.786640   61.451485
H   86.812462   97.842575   11.900145
H   97.000290    9.545857   93.367546
H   56.619381   68.229889    6.276831
H   71.808235   46.580746   62.291496
H   74.259521   38.404240   88.917976
H   43.015858   86.694229   27.996658
H   48.924831    7.323730    9.672647
H   55.609715   63.026184   92.021706
H   12.876244   91.783218   43.971817
H   77.552353   78.536858   60.518238
H    2.406418    5.092562   51.811142
H   44.712132   85.428993   28.783821
H   99.311447    8.835192   31.346445
H   48.187737   37.667629   68.413673
H   92.208244   71.520081   62.409203
H    5.933584   49.596985   62.850044
H   47.847847   62.098282   75.278900
H   54.315235   24.566151   48.385040
H   28.798203   80.298157   35.080860
H   13.101180   95.855347   54.339954
H   66.780457   90.603935   64.453934
H   20.008326   92.929352    8.594447
H   91.716057   22.107183    4.380706
H    9.468222   41.493805   16.563015
H   73.701378    3.942693   86.837311
H   97.400139   14.086905   77.293159
H   90.731239   16.726902   74.569466
H   45.753494   68.401062   80.372131
H   74.480431    1.706545   82.840820
H    3.233814   38.731266   37.657047
H   92.889717   60.951199   19.939310
H    9.252809   13.527431   16.199778
H   64.329712   88.168861    5.109108
H    0.738547   32.740154   96.603935
H   52.609177   23.665470   11.489717
H   49.300423    2.466007    2.785969
H   72.123207   90.346664   95.193764
H   65.322929   25.420324    3.634615
H   36.829586   17.496544   17.317005
H    7.884443    6.400952   62.007408
H   88.481979   68.896027   33.023361
H   39.611256   89.015038   60.858986
H   69.798393   39.005306   22.231506
H    2.487753    0.303783   70.334602
H   40.902195   18.231670   77.094238
H   13.519978   55.406189   82.851730
H    1.703264   27.511475   68.310966
H   38.910435   39.774899   66.047859
H   30.941601   42.344200    3.787970
H   34.288216   16.083366   78.639618
H   78.204971   16.387526    2.067463
H    1.101861   73.642120   30.357342
H   24.622866   36.480984   36.871300
H   71.724052   67.349449   52.516369
H   78.604027   97.104965   16.279049
