100
TIME:    2.055, STEP:  2055
H   78.351227   33.567276   97.264603
H   44.106712   16.163210    7.628906
H   15.078428   21.748772   99.212181
H   81.821533   47.984642   27.521229
H   76.764603   37.474827    9.985653
H   96.150520   98.981758   82.259514
H   45.267368    0.100036   51.156532
H   58.367348   66.384552   19.510315
H    3.112158   88.713440   70.733162
H   18.682425   45.890114   88.161003
H    9.103928   48.929813   41.801395
H   77.407639   26.696993   46.651573
H   12.544278   37.377144   20.878914
H   53.329872   98.741768   13.625927
H    5.495965   86.466553   51.991394
H   18.897774   31.991402   62.458755
H   58.848526   17.897438   60.455971
H   45.058998   94.765831   28.303104
H   77.270424   64.565338   71.626694
H   37.152763   62.171177   56.246590
H   42.330017   51.636257    1.468514
H   59.394657   46.812302   44.275795
H   58.306816   77.909035   73.554047
H   28.109779   61.328220   54.452858
H   56.085075   23.194031   51.724113
H   37.236263   66.373962   96.557335
H   84.874077   57.054890   40.745556
H   59.146118   52.360165   34.698872
H   55.854858   35.537331   60.031181
H   79.791466   39.978897   46.754910
H   96.939613    6.327684   46.798809
H   95.511261   95.736397    9.022392
H   15.108721   18.128662   82.927582
H   64.929878   85.394333   85.177643
H   29.691227    3.577819   49.862679
H   51.229046   45.915470   13.575414
H   76.899780   29.278379   70.391296
H   79.053535   21.341755   67.455925
H   58.336655   36.639740   45.165405
H   69.634605   19.800779   99.716873
H   94.805367   26.695696   90.759445
H   46.929504    4.086079   99.347565
H   28.941755   75.823166   49.907608
H   48.133263   47.212997   81.660690
H   78.399025   50.809605   31.962442
H   51.575214    2.112751   91.514717
H   57.779217   36.596909   45.183128
H   56.349163   16.541510   95.729713
H   25.100164   62.253178   62.501556
H   68.987907   62.027813   39.934841
H   43.387836   71.246468   75.084442
H    5.002550   73.051102   39.155392
H   51.508400   33.924316   83.518883
H   29.104115   73.679436   22.497618
H   77.162094   38.657230   17.843885
H   96.137497   10.372242   22.669754
H   26.530046   30.251060   51.435081
H   73.037445   82.818024   60.623734
H   52.349510   25.597746   53.720581
H   23.410290   85.741928    5.161212
H   89.331345   83.004585   54.170910
H   25.975838    8.816231    2.370909
H   13.621759   67.017693   92.577072
H   84.152832   52.973183   71.349663
H   13.887805   96.714203   86.939468
H   75.103401   40.112831   67.692986
H   22.692259   19.410028   66.277725
H   38.412971   35.065430   64.443481
H   59.324806    2.127134   31.346466
H   72.016174   51.504524   97.405884
H   56.777122   55.577812   37.500950
H    4.523496   83.323532    7.078733
H   73.001694   16.658344    9.054623
H   84.965294   19.334719   81.073799
H   61.249725   31.567720   57.181011
H   74.241707   39.278908   57.653118
H   53.536232   48.433670   27.392916
H   28.527966   16.348829   27.929768
H   60.056038   47.482273   40.605385
H   98.744179   97.033920   43.881050
H   51.096851   50.541576    2.811665
H   95.511566   57.648270   14.939604
H   47.822742   41.557037   25.628361
H   91.535225   88.010597   75.728333
H   52.268265   20.342255   48.543198
H    3.992495   84.538689   84.488609
H    4.403540   53.937683   21.533766
H   89.036606   40.766190   74.377846
H   98.328560   79.753273   11.387089
H   84.648972   24.726707   97.680077
H    8.121735   84.395355   76.859573
H   30.336889   50.060406   72.677650
H   17.136738   89.207443   77.895432
H   45.851788   37.883564   65.375359
H   21.061966   65.656219   63.308311
H   63.656158   14.581869   61.305527
H   99.486496   85.612846   19.004593
H   14.410398   33.734772   23.155338
H   10.817797   45.708591   72.912338
H   66.863785   25.918404   99.759552
