100
TIME:    4.949, STEP:  4949
H   82.642006   68.172829   94.615067
H   63.795876   73.043839   90.155945
H   64.823837   29.954376   65.253960
H   82.307281   28.752254   68.892830
H   50.843307   69.441681   31.515999
H   51.278782   95.846474   68.862999
H   93.593559   95.517090   77.471252
H   30.904655   16.753819   53.793880
H   31.972069   10.467266   88.564949
H   39.596382   87.443672    1.485397
H   39.911102   65.376312   63.035816
H   66.953377   71.758492   40.653404
H   28.261093   62.314537   33.264404
H   10.036201   89.821663   33.861336
H   40.698753   27.962545   12.877810
H    2.534654   78.871353   22.230934
H   26.138100    9.309449   23.915342
H    6.899030   54.015247   27.967680
H   22.350758   85.969711   24.094965
H   59.179977    0.718410   53.283546
H   70.596046   63.529716   22.920261
H   36.845795   50.653854   97.825241
H   19.667747   54.372322   90.752838
H   59.225376   96.032684   39.517288
H   52.579132   93.678558   73.089333
H   23.985987   80.352707   25.036837
H   35.320862   36.752827   98.161110
H   14.959867   87.442307   30.359743
H   18.782661   98.104301   23.229965
H   90.760437   68.351891   76.820045
H   10.828767   65.841003   17.829811
H   78.240150   15.777869   41.110313
H   18.957855    6.390300   43.641960
H   87.208145   20.176300   63.257576
H   57.752747   84.813553   26.087959
H    2.846141   73.055489    3.867719
H   54.471916   23.293022   98.427292
H   59.438915   68.386681   71.677818
H   36.173954   73.587212   64.717392
H   97.053230   48.874870   27.411001
H   97.023132   25.995840   58.941998
H   86.832542   33.971260   35.307034
H   53.869473   93.177628   58.944328
H   63.331806   95.711609   64.622238
H   27.366949   36.628983   79.609642
H   14.238573   57.311420    3.266060
H   80.398727   93.980736   72.972267
H   56.503719   46.343063   74.794014
H    9.696251   22.573795   47.057243
H   29.673069    6.058294   37.524353
H   43.167042   91.849152    5.597258
H   45.644127    4.508759   49.170120
H   11.528438   50.704712   15.438349
H   62.081070   26.455978   50.201683
H   46.748505   92.310066   42.441341
H   99.758530    7.327855   24.151169
H    9.997783   46.745522   26.678642
H   57.542618    9.515495   86.079819
H   80.593575   47.876755   31.545250
H   32.435825    8.183911   22.849251
H   71.887299   48.419819   28.533020
H   23.265886   81.877487   71.429062
H   10.047517   69.572189   94.102661
H   82.878883   68.722458   92.772934
H   28.756033   65.576782   56.448002
H   97.321251   96.243736   38.806831
H   90.500610   19.462914    5.999402
H   38.504585    0.575183    2.793418
H    3.558355   94.182762   49.840836
H   30.653379   97.062012   91.311951
H   64.879494   58.670151    2.779881
H   65.898407   87.277145   18.963989
H   84.306992   73.507515   34.856308
H   21.262318   36.196819    9.101093
H    0.783378   35.695423   76.565643
H   42.656616   24.756804   62.923237
H   16.291719   97.599556   78.574120
H   64.493347   27.117035   87.754326
H   98.836754   38.981953   72.901314
H   56.816895   39.420483   94.560547
H    7.716249   80.481339   75.779198
H   12.654267   76.548294   72.945091
H   30.910021   89.884094    1.260865
H   90.633224   35.656052   11.402843
H   11.353665   39.322388   68.002373
H   37.390835   90.839256   85.456696
H   97.687233   43.520309   59.530960
H   35.616699    9.065952   44.275925
H   58.389511   18.619913   87.714363
H   28.780256    5.658813    1.133377
H   26.556175   40.663349   37.975628
H   44.474781   67.691406   27.826719
H    2.694045   76.016838    1.718322
H   25.567268   13.425683   60.503010
H   71.025658    6.427629   29.808044
H    2.688689    0.301710   11.826788
H   69.774040   51.693569   52.567535
H   25.031446   58.375458   76.840019
H   72.954193   58.183491   30.506416
H   46.611675   51.632809   20.987356
