100
TIME:    2.150, STEP:  2150
H   71.926666   24.855270   97.177628
H   41.464119   21.313948   13.621309
H   16.711386   28.583202   98.097450
H   81.837479   44.070763   22.313957
H   75.913696   45.089497    7.409922
H   94.677742   98.878838   91.667320
H   40.288769    6.515078   58.585655
H   50.900536   74.603699   10.787546
H    0.776842   79.579605   64.753624
H   16.086580   47.254173   91.880638
H    0.267273   52.752369   32.650890
H   73.782227   31.458879   39.889259
H    6.501479   31.629539   11.436768
H   48.625969   98.448952   20.855732
H    6.651556   77.980682   47.424477
H   15.077755   23.682381   54.573013
H   51.210663   24.179939   69.105347
H   47.089142   90.146004   25.009285
H   78.750450   68.550247   76.632111
H   34.593521   60.154079   62.714638
H   36.692581   42.178440   98.889923
H   68.502945   46.938141   36.185898
H   57.038429   77.136406   70.836075
H   19.283257   62.467594   47.397003
H   52.687248   15.659813   52.424988
H   36.800663   63.543041   87.652534
H   76.682472   53.105495   42.630741
H   51.130638   56.794445   37.839169
H   57.920517   44.156563   55.540367
H   83.434273   37.627670   54.307247
H    0.676722   14.847258   39.281986
H    1.509612   93.111198    0.227821
H   21.800392   11.178265   91.485931
H   68.943779   76.688126   81.175339
H   27.329491   96.396484   55.647247
H   59.488781   53.378658   13.248895
H   86.011871   25.799013   77.876953
H   75.126610   19.602978   74.160255
H   54.322281   34.570557   35.960884
H   60.686588   10.907109    7.191286
H   88.312675   29.955450   92.997604
H   38.391449    8.349935    3.810641
H   29.760046   76.392853   56.769218
H   42.066750   48.805367   90.949631
H   70.158134   47.061703   40.092438
H   50.349590    3.924732   91.900307
H   58.526203   41.762482   46.093864
H   56.354237   17.519617    1.607769
H   27.876844   54.385555   58.711617
H   70.979637   63.473774   33.290668
H   43.380589   62.074944   76.086105
H    9.619116   64.236176   32.918552
H   53.479111   34.475159   78.001762
H   26.904369   72.129829   26.689455
H   69.599609   46.985821   18.649855
H   96.256363   10.272402   19.435730
H   32.552349   27.509895   60.470345
H   65.963470   73.846542   58.176834
H   59.841690   29.612009   46.426994
H   17.141560   93.043488    2.459341
H   95.323929   78.586250   46.764256
H   22.604465    7.931803   98.072540
H   20.065594   60.539497   86.059738
H   90.675964   53.489960   68.770851
H   17.658539   89.127075   95.786285
H   69.267372   35.390083   73.310127
H   15.069979   22.694426   70.864212
H   31.850700   40.498474   68.985031
H   64.059868   95.301048   25.387947
H   73.941223   56.283081   97.205841
H   53.760536   49.113869   36.361126
H   96.690247   80.170685   14.034216
H   66.807617   11.959515    6.618595
H   82.874992   13.322846   75.427666
H   65.829979   31.702894   64.382553
H   76.487114   45.367889   51.261173
H   62.161987   40.199303   29.073347
H   32.991238   10.136995   33.176540
H   64.610931   47.203503   41.665512
H   94.085213   91.860352   35.696693
H   52.955944   51.524395    8.489498
H    2.639377   58.268692    6.995516
H   53.833447   43.142883   34.676670
H   98.069954   96.139870   67.051117
H   47.642639   14.399731   39.333984
H    1.805887   88.027840   91.085670
H   10.748373   47.030411   26.063719
H   90.565918   33.160217   73.389229
H    0.300037   74.463737   10.609930
H   76.250076   20.817902    1.076300
H   12.009521   89.525436   78.865799
H   37.366566   57.204685   74.488182
H   23.231880   92.054428   85.244827
H   55.034184   43.646389   71.781075
H   19.419224   57.146568   65.491386
H   71.502762   10.830524   56.398682
H   91.945755   91.064735   13.541025
H   14.759204   34.543640   21.635086
H    6.292374   46.118099   64.954117
H   72.763596   23.478390   90.609772
