100
TIME:    4.009, STEP:  4009
H   46.209625   54.375580   95.475662
H   89.757179   22.105021   30.885649
H   48.665787   62.327461   76.283928
H   82.149506   67.479362   20.415697
H   59.262802   94.096535   57.003906
H   65.857796   96.864845   75.771233
H   42.858311   32.044544    3.961981
H    4.786804   35.431232   40.101139
H   55.079063    0.844285   47.735233
H   65.285164   73.946663   64.680328
H   27.347610   27.553135   53.581753
H    2.826423   24.640879    7.564392
H   88.244614   19.158085   26.667801
H   56.578621   92.719002   62.327961
H   29.266315   11.927483   58.064861
H   40.331833   61.087273    0.258739
H    1.727118   47.134182   38.343437
H   86.807701   99.742805   60.558018
H    7.709891   46.536911   74.571060
H   84.508812   20.680632   89.284019
H   26.376968   57.109516   48.431030
H   46.727081   49.405991   77.874908
H   32.218102   62.017281   17.647743
H   46.561974   84.763336    9.329262
H   86.199738   68.226654   66.147194
H   28.273554    8.155702   13.407248
H   16.377916   75.828873   79.514870
H   94.274414   43.566269   99.286156
H   98.342194   12.820008   67.664680
H   54.715820   91.616661    2.093027
H   73.835960   81.550072   92.199623
H   18.887739   41.746361   28.130821
H   52.746685   75.164925   58.959335
H   47.491653    6.321847    2.859103
H   81.117920   55.870476   68.847260
H   21.130415   99.413055    6.848609
H   64.313309   57.717758   24.358694
H   98.293968   85.584251    5.346324
H   75.852448   94.069389   55.810249
H   85.590279   36.874039   53.454784
H   61.264923   93.743439   36.796001
H   71.315048   91.783737   91.147949
H   45.772701   87.540726   91.048180
H   23.356977   79.958252   72.712891
H    8.904978   73.715363   99.171204
H   26.366062   39.382343   99.445686
H   73.054977   42.861351   63.950317
H   56.453518   36.661362   16.632088
H   82.216843    0.425157   84.553772
H    9.958255   91.755028    3.270635
H   43.238758   82.600212   95.687073
H   99.963348   91.733932   10.877728
H   92.032494   45.254272   70.034096
H   83.853508   41.796097    8.722983
H   21.591354    9.927073   34.444973
H   98.582382    8.316931   56.150986
H   50.404072   73.868629   37.276787
H   27.537346   98.286720   10.292084
H    6.458822    8.158466    3.709595
H   94.466782   35.933384   49.585091
H   12.591185   92.135521    1.823472
H   56.627373   90.626877   13.958735
H   46.231762   33.716606   58.561302
H   18.329893   63.602470   18.294735
H   91.446266   40.651859   68.909767
H   55.065895   42.973488   83.227173
H   65.918930   86.963898   60.616924
H    3.436626   46.816605   57.855984
H   56.711700   61.725159    8.794199
H   11.609114   49.784462   93.291321
H   94.727821   22.627579   14.056904
H   43.406555   18.474442   50.142559
H   45.597534   20.005283   58.960159
H   41.957867   95.681679   64.952873
H   55.460102   34.354328    5.307006
H   20.431734   64.513512   26.175041
H   30.945829   79.073532   61.950275
H   20.330441   88.581932   35.842171
H   53.757515   41.743031   62.415306
H    2.916193   90.615028   75.542320
H   89.325577   70.756607   19.597437
H   42.125237   70.409378   51.547607
H   71.447731   74.175385   11.737408
H   25.963343   55.217964   97.257309
H   57.124451   98.118431   59.124817
H   59.027645   56.313431   20.180511
H   34.906776   11.865974   14.708214
H   20.487288   84.324120   54.050858
H   38.882675   70.957558   95.402351
H   11.888768   44.335419   67.527267
H   88.087372   89.906136   18.124552
H   74.921829   96.999565    9.916117
H   42.438103   47.807762   29.026651
H   34.712971   56.409325   97.125282
H   87.276573   90.627464    8.210031
H   25.048584   37.419624   60.378883
H   44.386536   97.749092    6.627510
H   21.581892   50.371918   91.886101
H   17.733696   54.131519    9.240471
H   88.225609   75.754494   11.540021
