100
TIME:    0.619, STEP:   619
H   75.462074   65.255867   98.579300
H   84.051598   38.306332   17.046476
H   90.399719   18.437332   16.071793
H   81.580505    7.146677    6.233114
H   89.626724   22.373100   48.921242
H   18.417660    0.539944   40.047253
H   20.529121    3.134526   38.859379
H   71.234116   42.152943   51.360176
H   38.411797   26.779175   61.124550
H   57.924278   25.273067   31.929537
H   42.677155   91.149475   80.123878
H   32.215000   54.717918   48.867653
H    3.888416   24.257202   63.604424
H   24.432468    3.168748    4.345349
H   88.030968   14.732459   21.017187
H   76.635300   57.595821   81.657700
H   74.299873   22.932449   29.713194
H   14.371919   64.598679   78.086716
H   54.903114    4.319522   95.975021
H   75.893623   92.553802   58.417458
H   27.544205   94.593475   40.442619
H   21.701710   44.916946   66.549873
H   77.479485   89.587929   14.639317
H   61.529724   44.105686   61.103645
H    7.445333   37.083157   41.129654
H   43.820705    9.165790   31.154718
H    8.701315   16.745552   12.249495
H   80.311241   85.332016   87.234787
H   24.630798    5.252763   27.911282
H   24.728289   75.519547   32.596828
H   40.451450   77.551567   60.429344
H    4.841306   35.409393   41.960136
H   13.958956   23.193048   53.561363
H    4.256071   16.994904   45.673317
H   65.385612   12.128610   62.419830
H   26.374996   33.111462   18.514441
H   39.169201   81.866554   57.240063
H   38.405754   47.624744   66.121269
H   22.891914   67.294167   82.798706
H    4.890919   54.235126   86.735893
H   92.940369   77.419640   56.925610
H   75.988976   39.639252   31.881689
H   16.572645   67.211899   46.183777
H   39.831604   23.145098   41.254768
H    2.962198    7.469460    9.076765
H   70.045815   74.840630   85.745705
H   42.616138   59.133831   32.912544
H   56.272472    1.756544    6.878114
H   83.123833   81.183456   19.781435
H   38.872196   40.170971   40.370758
H   43.497395    9.882921   59.943516
H   35.214424    6.300020   33.425873
H   21.719553   25.597900   66.920845
H   62.355000   97.102959   59.131123
H   91.480804   12.769297    5.658699
H   94.340744   11.881405   71.554581
H   35.493408   71.685936   14.859619
H   79.966736   18.430153   97.610550
H   39.095787   64.922836   63.963741
H   18.171623   75.366745   46.003746
H   98.747238   49.783691   66.132446
H   76.941620   22.183792   67.348801
H   16.218998   64.942406   91.092140
H   85.545113   45.161690   10.333342
H   56.892838   11.405228   53.208031
H   63.319191   11.500751   82.785973
H   37.905510   69.761108   96.946945
H   37.607323   52.938644   95.794380
H   87.752861    5.308922   21.409351
H   42.925476   79.277977    0.429100
H    2.375438   53.286861   54.723484
H   22.927965   30.982231    1.941373
H   66.631836   87.688515   45.877102
H   16.566277   10.207640   66.419594
H   92.016647   29.524462   48.322559
H   40.292957   47.245224   54.277943
H   23.155807   72.894402    1.987185
H   61.062073   10.245461   48.626080
H   91.222237   51.689304   24.590527
H   69.168594   75.243248   67.593781
H   22.995197   35.685497   16.984917
H   87.767235   48.270096   35.018166
H   56.961216   17.589018   88.856628
H   92.750885   65.130226    6.891304
H   22.189478   10.164279   87.747429
H   37.046009   31.790752   84.768410
H    8.496344   58.346581   53.059429
H   65.919846   55.735313   89.305626
H   68.528755   59.707100   23.136120
H   11.608257   83.815063   46.341152
H   49.354588    6.856448   46.533886
H   24.086687   42.060463   45.317520
H   24.999783   46.177559   66.802330
H    7.055895   50.780357   68.553444
H   45.890247   94.282806   30.309692
H   45.048462   71.287529   35.476921
H   13.469267    3.203663    1.589535
H    9.137914   21.508087   46.131783
H   79.224388   39.518559   93.201393
H   77.683456   62.805714   38.067734
