200
TIME:    0.844, STEP:   844
H   28.030699   60.470448   25.667603
H   33.347473   41.695869   14.417594
H    5.478362   95.575134   75.098442
H   38.202133   84.033455   28.705246
H    8.797320   99.037537   44.974434
H   69.969421   36.421486   47.671898
H   12.110106   54.875572   61.342251
H   16.423929   14.967238    3.633169
H   11.957026   78.451202   32.984844
H   89.599258   66.437614   72.248299
H   33.246136    7.496647   12.048637
H   33.275421   58.144470   41.521797
H   25.998608    7.054062   36.536674
H   75.855812   55.755245   71.370903
H   90.460953   76.594215   41.492462
H   11.695076    1.080043   41.293449
H   12.620325   36.006668   86.106369
H   22.220085   12.203740   32.767239
H   85.121582    7.835285   51.375267
H   91.977852   71.409996   14.056642
H   65.333702    6.909207   98.168823
H   76.582436   71.901222   47.298904
H   76.918205   58.149887   34.643562
H   21.401619   93.565926   89.692131
H   29.499344   36.995934   23.858013
H   18.161108   89.141769   87.007851
H   10.592658   70.916206   73.366837
H    8.372338   95.045723    2.320560
H   36.507908   38.170845   34.801605
H   65.755325   36.945080   77.732529
H   12.572922   76.683510   16.933270
H   20.942516   77.662582    8.474085
H   12.529274   21.981997   80.556808
H   76.436378   64.236885   48.847580
H   19.002630   64.843246   29.624163
H   13.331329   36.150471   86.402519
H    3.600199   61.392532   90.489357
H    3.038852   60.379261   88.010925
H   30.716095   24.772629   57.857491
H   84.290298   37.204693   40.102631
H   80.684029   77.008255   21.572380
H   43.402908   30.441233   21.920898
H   65.826614   73.906776   72.756172
H   35.935684   92.569405   40.349766
H   49.414444   94.723160   66.160484
H   32.560051   98.119545   49.256802
H   91.356293   96.620422    9.421371
H   75.411201   65.541389   25.934036
H   10.439200    5.831459   61.601803
H   40.502850   20.527227   80.159882
H   63.840012   62.851189    3.931917
H   98.049553   46.093975   76.527504
H   68.468224   77.149529   15.820624
H   13.417070   94.929855   90.647591
H   51.632858   62.952164   71.239388
H   97.563164   57.469315   98.426422
H    3.706771   19.031105   43.175526
H   74.007553   72.620438   94.401237
H   15.436159   86.145309   21.734684
H   29.133671   92.597572   55.828674
H   48.463356    3.592208   24.589092
H    0.792196   17.855715   53.696724
H   88.087357   37.718231   64.507660
H   38.760918   66.014061   17.153175
H   81.057755   85.083405   42.628651
H   15.046073   40.026604   43.720108
H   63.613625   10.421340   98.314003
H   93.959038   92.823158   99.229713
H   38.006531   14.015441   54.334877
H   41.760113   52.157314   50.950336
H   58.200195   87.038818   89.437531
H   15.165211    7.945880   40.536846
H   96.663712   36.105175   79.270569
H   27.543097   95.688438   78.156898
H   86.499649   10.648932   39.212662
H   68.580574   97.752937   58.930588
H   92.874664   52.435684   63.601948
H    4.184059   16.968451   27.313789
H   16.125315   56.599510   21.551756
H   59.173763   87.298386   65.617340
H   69.003258   19.893835   92.166412
H   53.195324   57.727497   69.184990
H    8.643218   20.291674   72.607445
H    4.977707   81.610146   13.537076
H   17.399658    5.710927   40.665207
H   41.683319   64.641327   15.209509
H   62.925819    4.042711    3.156062
H   70.308601   96.064423   34.223640
H   84.173294   73.527298   79.345947
H   20.418877   13.120897   48.220547
H   15.924047   40.106922   78.067932
H   79.848183   93.834839   11.547001
H   75.953323   10.050095   78.527588
H   32.943439   72.733849   85.689415
H   40.429100   48.755943   93.095695
H   44.259010   41.213493    0.662993
H   87.498894   93.387291   24.341972
H   94.243462   38.502323   55.127380
H   23.331688   63.727524   55.021736
H   77.706413    7.741606   27.397867
H   36.814602   97.126343   97.381325
H   13.031453   85.794540   62.532906
H   35.699753   15.096034   38.942883
H   50.898460   69.054657   14.148509
H   24.538073   19.535187   44.669888
H   11.335451   97.201309   15.612170
H   90.317818   36.917912   52.633160
H   61.191883   57.464912   95.386238
H   88.146324   32.465462   28.339069
H   23.769365   19.638987    8.493395
H   55.141304   90.818092    1.220809
H   10.245968   78.533875   97.391136
H   46.603577   87.283661   80.797523
H   61.178154    6.375891   59.379105
H   43.694191    7.119689    5.594451
H   89.389168   88.128914    6.182582
H    7.741405   16.947699   91.221359
H   37.706692   56.725986   21.905144
H   41.800087   80.390335   53.688831
H   86.722237   58.729794   71.875137
H   46.858528   25.773136   67.727806
H   92.228455   13.171711   65.954651
H   46.798164   96.348343   41.947445
H   95.178650   45.584114   91.414909
H   58.843193   93.997826   72.836784
H   69.850403   78.877899   13.869377
H   80.373268   52.010117   47.728287
H   62.217094   92.307152   40.103802
H   99.900673   30.620281   71.125710
H   97.020798   21.286530   76.791618
H   72.990700   63.619537   26.493587
H   58.516380   92.041977   23.570789
H   90.465462   11.980463    1.868724
H   71.303955   28.488842   57.140636
H   34.264072   90.448822   28.661972
H   46.271011    0.851672   74.783257
H   69.892685   88.103645   85.406868
H   96.370262   45.362080   73.654884
H   62.100769   52.780380   71.407234
H   43.775124   80.122520   78.674591
H   80.519974   45.306534   34.420837
H   29.432800   59.362801   60.327106
H   35.589043   67.877357   79.011597
H   30.036507    4.663860   88.133339
H   68.692780   49.735428   68.819092
H   68.071220   72.381393    0.918409
H   59.016533   94.132713   42.957142
H   26.159859   50.935509   65.359642
H   81.332245   39.574226   91.940033
H   28.715805   95.269066   67.393936
H   54.931534   71.567703   46.784428
H   59.212860   90.396507   29.224335
H    4.234866    9.254025   82.262131
H   25.876213   15.006811   61.026249
H   37.563419   69.831009   71.679832
H   81.432426   45.026554   72.644409
H   65.633652   78.997849   87.907639
H   54.633362   26.968948   23.874622
H   84.737663   99.458359   80.204872
H   56.907993   32.299408    1.419979
H   59.888947   59.870964   67.356468
H   15.244844   19.926212   30.311417
H   91.218559    8.235607   36.980907
H   33.445465   37.923359   45.357925
H   53.170952   42.583130   15.759272
H   22.320061   45.220989   59.000080
H   64.499229   87.797676   58.624729
H   24.159847   58.413292   72.988907
H    2.280556   26.205984   35.430710
H   54.036629    5.901673   83.601715
H   67.826172   12.816779   35.925385
H   25.296846   43.012459   59.312897
H   49.343094   51.500004   73.429153
H   63.788307   60.091713   88.252670
H   43.364990   90.492905   70.831367
H   19.552727   50.926903   23.875443
H   29.212864   71.790192   12.173386
H    7.083176    9.776878   72.603470
H   60.154461    7.338162   62.071171
H   57.569206   60.934166   94.905479
H   70.390503    6.834344   27.676304
H   31.410475   30.843349   91.666183
H   37.824093   89.529419   18.033493
H   64.634499   26.337963   99.410805
H   93.333786   62.137024   75.908432
H   11.904842   41.320389   86.977150
H   52.383606   94.178932   12.648359
H   61.403503   92.809029   46.661491
H   89.126259   63.866871   73.446426
H   60.597107   54.987698   73.334122
H   76.673218   11.041084   74.988228
H   42.701454    1.343502   16.931074
H   17.516685   31.893402   71.643471
H   24.551706   87.636383   45.485722
H   64.167130   27.277100   19.840538
H   76.802750   11.865543   21.291279
H   13.476134    2.029150   23.853254
H   11.355726   85.401939   29.932671
H    3.858835   13.301935   51.004066
H    1.708049   14.529289   89.357346
