100
TIME:    6.571, STEP:  6571
H   72.952469   19.428404   93.130081
H   19.000614   60.938374   92.427834
H   92.716812   46.647697   46.209835
H   82.579529   61.925262   79.984497
H   36.315201   99.452057   87.539047
H   26.120655   94.089241   29.494064
H    8.584781    5.042141    4.313868
H    3.418655   57.076023    4.865775
H   92.100151   54.518555   86.465904
H   95.282051   10.734119   64.998970
H   89.036621   30.640814    6.797882
H    5.042450   53.060841   25.197792
H   24.757645   64.229225   72.093925
H   29.723831   84.822212   57.297108
H   60.417366   83.078728   34.903095
H   37.318832   37.005409   87.590332
H   95.706276   16.592060   71.572395
H   41.585049   75.094254   71.739296
H   47.610249   54.016434    9.548823
H   15.484283   66.266884   63.716850
H   74.344269    2.052794   78.893684
H   92.348511   52.807083   59.696930
H   98.009880   41.180702   44.347046
H    8.516953   15.436495   19.053541
H   94.568306   65.047913   85.068214
H   16.591997   32.404274   72.509148
H   95.454002   69.330093   30.346304
H   78.099442   63.151772   83.975479
H   54.051064   45.264294   46.556946
H   52.954136   28.207787    5.764591
H   74.666893   11.290250   89.502403
H   80.654266   70.959610   90.953697
H   33.209194   87.717049   89.764526
H   55.742393   71.529800   94.926254
H   17.422287   62.153145   24.835817
H   43.843182    0.097254   98.767189
H   10.043752   63.891235   26.234289
H   92.401573   38.701176   86.138847
H   67.710175   38.244560    7.533849
H   44.278500   97.027878   55.027859
H   86.170654   81.649590   97.155617
H   46.445938   67.371323   15.421601
H   67.837311    2.905360   76.103752
H   59.761768   22.936728   23.213526
H   86.670021   72.632462   18.408518
H   93.305656   88.248611    9.856630
H   93.070602   82.190994   88.539864
H   56.590343   63.049149   75.154175
H   57.104408   88.239967   82.354721
H   63.698597   30.747942   24.087255
H   43.050396   35.256241   22.695034
H   24.474983   54.000275   42.691048
H   45.175320   60.109619   21.234827
H   24.523315   99.987976   21.776108
H   17.602146   34.455780   56.239330
H    1.779932    5.621669   68.934448
H   12.825536   99.942741   80.944176
H   36.765045   56.337761   44.302231
H    8.518435   16.411243    7.027568
H   25.400887   32.857151   76.715721
H   74.204247   72.988541    2.069891
H   65.700294   66.780136   98.035782
H   20.165228   58.889931   82.877258
H   94.258224   77.558121   48.738827
H   93.136612   36.029202    7.497383
H   97.680695   15.609047   34.712646
H   60.364944   75.537415   84.309647
H   26.461998   93.339272   80.334396
H   84.399910   77.636185   48.111805
H   63.508934   78.644951   87.896484
H   13.373171   48.310547   83.325844
H   32.158421   33.446426   37.719620
H   78.549500   93.278687   93.266418
H   85.555702   33.541050   12.727243
H   78.984612   38.009525   99.523941
H   81.000877   28.711838   53.783661
H   63.569912   57.064838    7.279272
H   40.697857   21.058287   77.332085
H   76.615578   34.217625   90.993385
H   77.277176   51.066414   54.823631
H   39.457016   97.261673   72.722427
H   34.379730   87.084717   37.274708
H   33.505669   17.008337   55.732979
H    2.224427   74.453758   63.256741
H   32.376625   37.865608   10.767574
H    0.056156   50.419067   98.093246
H    6.017003   25.587563   36.874077
H   61.708763   79.256287   27.446785
H   92.049179   28.309069   74.448494
H   85.374130   38.927769   59.112358
H   92.935020   28.247334   72.229294
H   64.486359   89.681641   58.726791
H    6.667299   24.681675   27.150095
H   82.328529   11.827853   69.871445
H   42.984184   61.140457   67.080811
H   36.659271   36.249359   28.048431
H   41.026970   44.775803   59.285172
H   25.593775   11.592671   46.967987
H   95.685936   65.177376   94.646431
H   47.360447   10.012825   64.736183
