100
TIME:    2.878, STEP:  2878
H   22.694771   58.094048   96.511124
H   21.213509   60.786888   59.543354
H   29.224997   80.959122   89.555092
H   81.959671   14.076426   82.410583
H   69.393066    3.441895   87.670822
H   83.391609   98.090141   63.764805
H    2.135199   55.675049   15.516288
H   93.681168   37.585293   43.945972
H   82.881203    9.585459   18.926807
H   96.193687   57.707176   20.388597
H   32.550476   82.045212   62.525021
H   45.996521   67.949966   88.070213
H   60.191521   87.584259   39.079178
H   12.579349   96.205055   76.257637
H   15.507622   12.952867   12.428880
H   85.805847   60.008698   94.141945
H   92.675423   72.327087   35.384045
H   62.646454   54.743538   99.768250
H   90.092125   99.087234   14.987352
H   14.981644   44.696743   12.280207
H   93.492126   69.704071   79.128082
H   38.297012   47.904572   74.190002
H   47.318581   71.215630   50.007828
H   51.644135   71.198792   93.327888
H   26.649734   57.920448   57.795898
H   33.462589   41.853893   19.416761
H   13.905281   22.841505   57.077213
H   89.704735   90.775032   61.905514
H   73.749985   10.206866   21.127428
H   11.349069   19.609848   12.181492
H   29.321913   80.131042   81.680748
H   47.475807   72.993889   32.833168
H   73.080780   57.913979   57.069923
H   99.702934    9.971210   50.505051
H    9.231652   41.365479   99.979820
H   22.785419   10.566313   10.746728
H   55.836014   99.136215   35.240353
H   45.037460    6.278544   25.534168
H   23.590897   18.710093   65.412643
H   92.118088   42.754684   64.470497
H   38.560436   54.932911   10.150603
H   72.962914   41.024963   38.011520
H   36.030735   80.758453    9.354976
H   95.579895   61.007942   62.128647
H    7.010805   18.340939    2.388752
H   40.957439   17.810230   94.855141
H   64.219040   81.352814   53.086601
H   56.393116   25.015009   46.652245
H   49.154984   94.094109   29.668932
H   86.242577   74.549110   82.373322
H   43.325047   91.790863   83.762009
H   44.997608   96.681976   85.126488
H   68.579292   38.696350   35.719482
H   10.047375   60.253197   58.814484
H   11.641796   10.804374   24.827028
H   97.167252    9.507311   94.652893
H   78.703957    6.503285   29.709297
H   11.754596    5.095768   39.425858
H   17.258957   60.371380   90.537621
H   69.099350   49.001347   81.753426
H   41.247505   44.731014   90.004532
H   96.768761    1.154291   65.136139
H   69.448875   10.893309   36.117386
H   40.666588   57.450104   49.004795
H   46.555660   30.982613   63.584740
H   24.544960   99.199043   16.354633
H   56.661324   47.861530    6.011578
H   81.562538   82.132751    3.787643
H    0.339935   42.991600   79.729805
H   88.693176   92.897530   95.672882
H   30.643795   99.580147   27.625763
H   36.662994   56.009918   67.336578
H   19.340689   75.947929   87.954582
H   66.856682   67.255234   32.160454
H    0.932427   32.740734   19.569965
H   93.694023   92.025383    2.277324
H   28.258364   77.101456   41.948612
H   67.194000   62.536655   73.382095
H   99.524628   45.065136   49.791306
H   58.382820   52.212826   72.978958
H   67.201218   59.055889   51.999836
H   57.264587   63.023087   46.121193
H   99.890091   55.295471    4.015228
H   48.151615   58.435760    0.556721
H   12.194337   68.865051   68.762627
H   85.053894   14.767330   41.640347
H   59.369835   94.098869   60.777466
H    2.284739   74.874817   65.813301
H   15.409222   33.929192    4.654050
H   11.884298   90.865799   27.099850
H   41.802246   28.835915   94.239822
H   91.233932   11.948492   88.362572
H   69.940002   13.870377   41.564598
H   25.397228   87.804832   20.867802
H    6.830696   91.935486   82.220634
H   31.632614   82.082527   18.796753
H   34.159866   32.842922   71.673119
H   17.431417   40.742126    9.985870
H   71.612206   49.256222    3.974433
H   17.975206    4.780679   20.492380
