100
TIME:    7.266, STEP:  7266
H   25.952078   55.693764   92.493790
H   99.808243   98.596657   36.249645
H    4.666672   96.649605   38.049397
H   82.696182   33.292145   41.888767
H   30.089334   55.159283   68.694214
H   15.340898   93.336296   98.322159
H   72.157883   51.973675   58.663815
H   48.793022   17.203732   41.054131
H   75.015724   87.697037   42.718281
H   76.299355   20.713991   92.211037
H   24.389404   58.605824   39.851608
H   78.518723   87.897797   75.727394
H   80.420967   22.183994    3.031869
H   95.312767   82.680031   10.185207
H   68.858833   20.997887    1.481754
H    9.372883   76.218018   29.899805
H   39.818672   62.558819   34.841000
H   56.447758   41.275360   47.648659
H   58.432507   83.171005   46.162098
H   96.760483   51.509411   11.035624
H   33.101974   32.864159   60.028759
H   58.978836   53.729706    0.511284
H   88.730629   35.528313   24.461931
H   43.941948   23.750704   67.438400
H   69.710518    9.929260   90.200966
H   13.347500   11.900223    7.119382
H   35.523426   40.438133   44.137920
H   19.458035   95.592033    6.946804
H   69.162987    8.320587   13.704573
H   79.604141   11.006321   61.014671
H    2.017102   73.611298   34.516212
H   24.536800   51.757595   26.614021
H   82.164558   36.866753   52.375618
H   85.107246    7.837190   65.646240
H    0.124834    9.531837   67.122299
H    4.258924   54.533234   96.582588
H   76.702469   38.439575   80.997772
H   63.673073   25.980648   35.182625
H   38.372501   23.102381   40.182632
H   78.817024   31.964460    9.707852
H   38.671494    5.498806   13.528488
H   87.874962   70.096771   50.901394
H   73.818451    7.074482   26.304798
H   15.385719   34.602074   91.166618
H   26.384464   45.211933   77.881172
H   84.333946    1.504438   12.680174
H   98.500290   19.987995   95.210320
H   56.631100   70.207428   18.156414
H   77.421516   30.679867   54.631828
H   78.290771   41.326603   75.494148
H   43.002674   68.158096   30.020340
H   58.256298   89.507828   97.068939
H   59.592625   64.139465   80.871315
H    8.430443   88.651382   52.444473
H   62.265244   95.362053   62.151539
H    2.645553    4.890596   45.275009
H   56.883518   79.888954   47.044563
H   85.014572   90.703072   26.400400
H   63.329826   45.781399   53.674416
H   79.537346   86.276917   56.948265
H   18.045340   40.668762   47.880806
H   41.033394   60.311172   66.592377
H   67.350502   11.463983   35.219025
H   41.983082   81.344055   29.867481
H   20.722031   80.521362   72.219841
H   54.985535   81.059013   75.806473
H    4.603337   99.568024   17.864710
H   78.453362   33.088310   13.559417
H   19.037796   27.697906    4.520885
H   77.593452   13.597788   86.432526
H   91.303459    1.023066   74.990425
H   74.929466   10.339837   88.641243
H   33.234940   58.905155   75.450256
H   70.252892   89.554321   71.432617
H   12.482106   39.013981   52.214664
H   97.427803   73.256248    7.020361
H   26.690899   96.909126   19.604807
H   73.350220   75.615150   15.712796
H    9.945344   32.176189   98.745537
H   43.193161   13.205852   94.948891
H   53.058815    4.452462   14.261724
H   86.531410   91.591782   79.130287
H   77.466484   28.631262   21.920013
H   50.038082   33.926876   99.781090
H   98.535812   94.389854   43.395103
H   84.064011   75.947784   46.356369
H   52.434498   75.055077   70.014259
H   72.886284   23.640959   20.240784
H    6.472678   89.613365   68.764290
H   23.926470   10.331768   83.958496
H   21.377399   65.773140   86.906418
H   15.909319   41.951675   71.970146
H   51.218052   45.536129   80.895515
H   49.496819   53.992638   16.733973
H   30.968651   98.884811   83.051727
H   94.063370    8.805879   92.150398
H   85.861656   84.660675   19.314617
H   24.252260   45.980495   33.017296
H   62.577568   68.178551   36.433849
H   90.530785   92.177231   97.782898
