100
TIME:    6.931, STEP:  6931
H   48.606766   86.415047   92.800491
H    9.059361   80.445030   15.126590
H   98.907608   72.547966   41.982845
H   82.639954   47.093719   60.252529
H   33.090714   28.307554   77.777695
H   20.536854   93.699226   65.147263
H   89.716553   29.351871   32.466381
H   75.123360   88.221649   71.813103
H   83.250664   19.906128   63.806576
H   85.449287   15.903873   79.094429
H   55.550293   45.126286   72.119820
H   91.303070   71.105881   99.573448
H    1.785232   42.457096   36.322441
H   11.899729   83.712593   84.692192
H   64.789925   50.921745   17.591389
H   22.843475    5.518364   57.707520
H   66.757301   40.402180    4.344628
H   49.283718   57.576553   59.259872
H   53.216022   69.118958   28.513973
H    5.786102   58.622334   88.227348
H   52.981354   66.215240   69.121346
H   26.862061   53.284988   29.039581
H   93.203362   38.252846   34.047363
H   75.068703   19.743135   92.317017
H   81.692329   36.497292   87.726906
H   14.927013   21.774738   38.644928
H   64.412132   54.364944   37.490162
H   47.723717   79.955360   95.873672
H   61.878822   77.926643   29.539324
H   66.758453   19.297874   34.382744
H   88.833763   43.571609   61.020348
H    3.384921   61.012318   57.626671
H   58.568386   61.377327   22.196173
H   70.952965   38.537857   79.759628
H    8.462358   34.896065   46.739807
H   75.137733   28.294727   97.635597
H   44.571907   50.707642   54.600986
H   77.520592   32.112125   11.543593
H   52.514004   30.400602   72.647003
H   10.371067   63.327259   83.351486
H   61.566772   94.003716    5.636671
H   16.107193   68.783066   33.800220
H   70.935455    5.064947    2.108225
H   36.775623   28.979208   58.411316
H   55.442139   58.428219   49.214787
H   88.658440   95.115067   11.319185
H   95.883102    1.768731   91.995064
H   56.610653   66.757034   97.428955
H   67.627510   58.423588   67.995590
H   71.257080   36.227688   98.915932
H   43.025677    0.499803   26.489437
H   41.974049   20.593597   19.059456
H   52.643276   62.197021    0.326448
H   16.187439   94.115784   37.661453
H   88.938065   66.005592   59.301769
H    2.228311    5.242984   56.679199
H   35.646984   89.555168   15.183355
H    9.959380   22.340178   35.029770
H   36.910034   31.624561   79.391350
H    1.645283   60.528965   66.476463
H   96.912987   56.246651   73.999985
H   52.923195   63.429306   81.748550
H   44.606396   34.324501   58.190979
H   18.978626   79.519180   38.963741
H    7.425221    7.276408   41.023167
H   75.565216   97.712914   55.998657
H   31.481863   87.984924    1.690134
H    1.594046   13.928477   97.544479
H    2.340877   51.768875   25.532154
H   70.803673   96.750420   87.138428
H    1.941058   23.816528   79.008217
H    2.498963   21.485313   64.089287
H   55.077209   75.472946   84.037903
H   77.629066   10.756870   91.337555
H   96.343010   38.523136   26.815231
H   89.509789   51.785679   29.561415
H   96.265228   25.904865   13.663740
H   57.611309   97.518761   97.211845
H   93.880592   33.160191   95.008888
H   59.622147   31.455780   23.809227
H   46.501999    0.986265   94.239151
H   61.392365   89.419312    7.157313
H   56.277580   23.028845   90.016479
H   26.991730    5.259544   30.377407
H   14.847227   15.346362   75.869698
H   91.772446   63.643860   23.093048
H   30.060610   99.412300   54.040215
H   67.498558   50.448841   23.714180
H   99.519882    8.265621   71.504158
H   53.545834   24.115452   71.981796
H    7.667828   47.685158   79.831833
H   91.122711   16.756908   65.585640
H   29.743824   35.483982   54.989449
H   17.121315   33.668541   94.145737
H   36.760429   28.892838   75.353516
H   66.393768   22.034014    9.453829
H   12.452385   65.435593   38.581436
H   24.898890   29.405628   39.741730
H   78.536278   66.731941   64.494453
H   69.721077    0.774955   30.055149
