100
TIME:    1.468, STEP:  1468
H   18.047579   87.398300   97.802017
H   60.435158   84.338036   70.601250
H    4.988306   79.518074    6.102990
H   81.723007   72.168297   59.698612
H   82.022308   90.424202   25.900719
H    5.252264   99.617699   24.126406
H   76.031624   60.465305    5.252339
H    4.504395   15.603136   73.407738
H   17.541756   45.151230    7.681108
H   34.722389   37.461662   65.177574
H   63.705246   25.310444   98.344604
H   99.808868   97.274147   88.435555
H   49.882217   72.891289   79.221336
H   82.395042    0.551198   68.956474
H   98.355873   38.898602   80.207565
H   42.499634   83.334404   11.184178
H    6.042505   79.078171    7.013697
H   32.514847   23.312012   48.653610
H   68.125420   39.938416   40.701862
H   52.966187   74.638535   16.280863
H   77.163437   10.072800   17.400612
H    3.109183   46.037529   94.257118
H   66.144112   82.683067   90.348251
H   82.648399   54.288090   98.047119
H   77.080070   69.748116   47.393448
H   39.927814   83.866806   51.576469
H   35.491310   81.454788   29.097097
H    8.676689   24.960979   15.296279
H   43.091263   82.280579   87.779686
H   57.282757   54.507004    0.090870
H   73.848701   53.687683   93.247681
H   58.447575   11.954608   63.363960
H   73.762405   61.076317   30.045988
H   40.128197   39.189217    9.907082
H   44.282387   47.950661   14.120132
H    0.191200   99.802322   15.592957
H   20.599651   50.775246   24.137823
H    3.317331   32.085567   26.034328
H   84.724838   49.170525    1.425416
H   24.924578   74.754524   53.534031
H   34.919464    6.553887   76.929977
H   99.685699   77.743202   71.769241
H   23.885580   72.303101    7.509003
H   85.617928   37.373833   24.267614
H   29.317745   73.969620   81.730667
H   59.148281   90.916634   89.132179
H   51.580799    4.930035   40.167183
H   56.317814   10.497835   59.409451
H    7.943202   10.870178   85.915207
H   56.678448   53.093296   80.990685
H   43.432621   27.917921   68.895218
H   76.475182   27.519278   77.690903
H   39.331482   30.520691   17.610062
H   42.696224   83.254372   96.596146
H   23.892227   87.197739   12.863138
H   95.403030   10.989149   42.652618
H   89.316803   47.188576   95.606361
H   16.746960   38.253502   75.742996
H    6.055725    0.794475   98.783813
H   62.144444   40.623653   21.856163
H   52.303478   10.303973   99.939751
H   46.808960   14.281065   28.932167
H   73.807175    7.046415   32.847755
H   43.844498   49.780045   87.284004
H   90.589409   43.597591   32.272854
H   11.163671   69.294441   32.984966
H   69.788132   99.116486   37.938061
H   78.960899    1.492990   36.381489
H   30.067062   44.305206   68.163338
H   60.122856   21.978834   98.641937
H   75.416451   95.517616   44.541080
H   52.923161    2.804974   64.103050
H   11.275139   45.692165   24.106709
H   97.881157   56.482735   15.960991
H   32.950371   30.732489   12.682114
H   60.366283    1.657123   97.152367
H    0.239412   99.310287   17.009619
H    0.949636   54.732750   95.511307
H   31.917910   49.202000   34.057884
H   27.532150   29.003187   94.451759
H   39.609615   44.468792   67.727562
H   51.469173   53.814713   64.024246
H   10.682796   31.758234   69.719635
H   51.156055   37.780254   29.344398
H   80.849762   57.061104    5.446352
H   17.503826   62.979198   43.725716
H   65.199120   96.617355   93.542908
H   79.587067   87.763092   80.483467
H   86.147163   12.436574   16.189156
H   36.547401   48.879013   76.694038
H   84.099129   52.698452   64.463211
H   86.904091    5.913946   61.491478
H   79.473930   71.616074   32.483902
H   89.115364    2.277165   25.798752
H   31.212383   18.234749   49.819206
H   15.172409   37.760735   91.624664
H   46.079178   51.925915   52.763184
H   12.255141   28.736816   32.548767
H   38.779778   43.178265   22.083843
H   30.409164   40.996456   56.296577
