100
TIME:    9.072, STEP:  9072
H    3.820088   90.076118   90.840347
H   49.929398   96.461472   50.124287
H   35.710239   26.579563   16.848923
H   82.999313   58.884270   42.895691
H   13.906267   99.918060   19.726490
H   87.336914   91.379723   77.176941
H   77.505730   73.923607   99.895378
H    6.844986   73.444565   75.233345
H   30.620796   14.056333   29.036730
H   26.970953   46.645481   62.926216
H   56.399689   31.272560   65.887566
H    9.586853   78.423164   47.173866
H   65.258316   12.872543   23.557362
H    5.890714   77.113441   47.623974
H   90.794502   59.677071   14.628960
H   36.758453   18.258812   79.985413
H   94.590645   82.012840   99.248299
H   95.064163   53.395378   85.045975
H   86.565857   58.936764   41.309254
H   48.098667   13.159941   33.996513
H   25.931374   53.071701   11.014915
H   32.121822   56.127197   46.713669
H   64.617928   20.845469   72.789658
H   76.138824   45.355682   33.308262
H    5.118323   66.706467    3.537071
H    4.830887   58.660934   37.166309
H   79.790703   65.366776   79.970139
H   67.071716   79.889999   66.646873
H    8.432714   72.174858   28.333084
H   48.853386   66.307419    4.586946
H   73.097328   35.559689   91.631332
H   38.568836    1.864207   59.423592
H    9.375774    4.732100   15.074361
H   61.415787   42.327972   89.563087
H   55.178749   72.792305   77.001160
H   61.250874   95.989929   90.905769
H   49.921440   72.298592   23.303305
H   89.029655   92.930092   62.625702
H   62.142109   83.754478   65.168198
H    8.712809   62.894020   51.801323
H   15.244635   67.462402   56.076870
H   35.675232   77.179016   43.102238
H   89.360809   17.908581   56.751858
H    0.067798   64.922646   67.745308
H   69.726196   73.967339   32.427441
H   61.022171   35.945324   20.017324
H   12.618161   18.204622   12.551353
H   56.741329   88.808655   29.901096
H   30.213806   81.107033   82.588745
H   16.205275   68.817497   49.219082
H   42.878666   93.800072   49.061768
H   46.028576   21.924385   78.515633
H   97.044716   74.611267   75.985855
H   66.601135   59.190300   32.137642
H   18.468781   53.632187   77.502655
H    4.894924    2.990860   83.794495
H   71.376297   27.777962   18.810278
H   50.535828   20.148790   79.880760
H    5.767948   22.093225   15.027655
H   60.359074   25.092083    5.581322
H   31.969824   56.679790    7.072407
H   76.934898   43.501175   84.876030
H   89.958740   88.225731   11.376190
H   65.999146   91.182037   80.835373
H   92.405991   36.278263   40.404850
H   44.041512   91.277702   82.591805
H   59.705032   62.002209    5.057694
H   53.700699   36.375374   99.896667
H    9.048218   97.930283   91.252319
H   14.272597    4.308601   82.602051
H   33.949345   78.140694   53.330330
H   26.210356   50.374413   21.020107
H   15.480591   69.570915   29.143368
H   30.499218   75.252235   64.126137
H   99.479187   41.673267   89.146866
H   40.126076   89.003044   85.498672
H   90.713699   40.596081   51.637589
H   58.192036   57.530998   15.461806
H   96.549812   26.871395   18.900202
H   54.625755   14.824270   39.360252
H   88.414925   23.136362   22.204491
H   22.051968    3.307064   28.040766
H   91.697868   58.834141   93.913994
H   74.287407   88.469704   34.830189
H   10.600235   81.411972   68.325012
H   42.500362   42.283844   71.770386
H   73.053215   43.743858   56.131172
H    1.931610   79.124672    1.515463
H   43.955326   89.058189   53.993538
H   64.253220   36.029984   48.517830
H   95.286278   63.290279   25.046165
H   49.535030   77.780670    6.386975
H   66.986206   99.718620   20.556269
H   24.039183   63.560658   38.508556
H   99.739731   37.115368   24.550379
H   43.231613   37.487976   98.868103
H   42.509361   88.302361   15.449047
H   20.766253   35.343166   96.758263
H   76.543938   75.977287   85.162315
H    2.709210   45.831135   23.805241
