100
TIME:    1.483, STEP:  1483
H   17.033232   86.022720   97.788284
H   60.017906   85.151253   71.547447
H    5.246153   80.597252    5.926888
H   81.725525   71.550316   58.876354
H   81.887955   91.626518   25.493996
H    5.019649   99.601448   25.611906
H   75.245415   61.478222    6.425373
H    3.325424   16.900791   72.030556
H   17.173027   43.709045    6.736884
H   34.312462   37.677040   65.764885
H   62.309982   25.914005   96.899673
H   99.236435   98.026024   87.367821
H   48.928123   71.983772   77.730400
H   81.652321    0.504954   70.097908
H   98.538292   37.558842   79.486588
H   41.896530   82.022453    9.939090
H    4.836528   80.070145    8.379365
H   32.835396   22.582565   48.133591
H   68.359108   40.567726   41.492077
H   52.562096   74.319931   17.302134
H   76.273315    8.579460   16.993488
H    4.547505   46.057327   92.979958
H   65.943840   82.561073   89.919098
H   81.254738   54.467991   96.933151
H   76.543571   68.558388   47.504112
H   39.859035   83.419800   50.170563
H   34.197784   80.831314   29.394758
H    7.411080   25.661129   15.792094
H   43.417419   83.641510   87.070610
H   57.857937   54.135757    1.283295
H   74.438759   55.032822   92.060699
H   59.394688   11.540189   61.975334
H   74.818924   59.978828   31.397306
H   40.761971   37.814552    9.275167
H   43.909538   46.816780   15.033485
H    1.495421    0.980659   15.541402
H   22.038345   50.225929   25.319769
H    2.697376   31.811024   27.092793
H   84.050552   48.850319   99.987717
H   23.511747   73.350334   54.714260
H   33.894417    7.068571   77.283371
H   98.337585   78.416344   72.473969
H   24.014784   72.393051    8.592450
H   84.660057   37.625259   25.734232
H   28.016609   73.377731   83.014236
H   58.954762   91.202736   89.193062
H   51.739185    5.739233   40.295357
H   56.318615   10.652273   60.337566
H    8.381627    9.627922   85.316910
H   56.993046   53.321606   79.941490
H   43.431477   26.469728   69.053375
H   77.204170   26.127390   76.706253
H   39.642647   30.607666   16.738880
H   42.348896   83.009697   97.258072
H   22.698036   88.512665   12.990425
H   95.421799   10.973385   42.141983
H   90.267807   46.755760   97.032982
H   15.629969   36.836952   75.356644
H    7.238700    1.428284   97.632309
H   61.154644   41.776646   21.429527
H   53.249676    9.606427   98.770164
H   46.276581   14.141418   28.253418
H   74.824554    6.023499   31.818703
H   44.874580   49.861641   86.876823
H   91.184731   42.399509   33.669834
H   10.242222   68.548744   33.871883
H   68.584671   99.635132   38.662243
H   77.924751    2.350889   37.098576
H   30.814705   43.227402   67.222633
H   60.426697   22.733286   98.610352
H   74.940147   94.497032   44.361179
H   51.686398    2.307127   65.201225
H   10.297070   44.950245   23.722073
H   97.551109   55.533447   15.069496
H   33.673523   30.753832   13.819256
H   60.720936    2.618498   96.142998
H    1.601326   98.010239   17.274950
H    1.654366   53.751877   96.339630
H   32.636940   49.158054   34.225197
H   26.796524   28.186251   93.159492
H   39.903156   44.623974   68.624092
H   52.594700   53.912674   62.769974
H   11.631911   32.008575   71.148315
H   52.187969   39.063824   27.974312
H   80.119400   56.122803    3.992294
H   17.158558   63.530231   44.767357
H   66.200935   95.526733   94.258163
H   79.828537   86.562149   80.327599
H   86.458443   11.601413   16.066418
H   35.221146   48.261833   77.230309
H   84.712990   53.508350   64.779984
H   88.013939    7.042047   61.777237
H   80.436378   72.065598   33.644333
H   90.565102    3.187035   26.810123
H   30.953003   16.891098   50.163902
H   16.411346   37.168388   90.849899
H   44.888535   52.786739   51.900528
H   12.310216   28.864532   32.308784
H   38.065208   43.242924   20.827396
H   31.340714   40.611134   54.851875
