100
TIME:    9.677, STEP:  9677
H   62.905914   34.594398   90.286453
H   33.220261   29.246456   88.270805
H   46.109600   70.106117    9.746523
H   83.100861   33.959038    9.732617
H    8.485029   48.411209    3.323410
H   77.957642   90.724281   37.091454
H   45.797947   14.774928   47.207180
H   59.293182   25.785564   19.683319
H   15.748741   55.887878   90.954659
H   10.444139   55.332386   86.614418
H    0.123992   55.616135    7.609643
H   86.496788    8.748503    4.110047
H   26.679596   76.252144   63.433182
H   75.934509   75.248665   93.663445
H   98.142830    5.635475   85.533226
H   12.431416   65.343124   29.765583
H   45.940285   22.029518   54.323837
H    8.004035   23.955910   64.071854
H   95.991287   84.315262   73.185944
H   31.800335    0.311922   75.187767
H   90.029327   92.841805   94.592514
H   90.123764   56.930344   95.192368
H   56.540306   15.927334   55.480469
H   19.924686   52.593231   88.376129
H   83.479843   18.725655    8.002872
H    1.976974   40.825546   80.233452
H   27.620090   40.215618   91.971176
H   16.024767    8.129354   86.642448
H   21.588360   27.064939   99.735825
H   72.052315   51.333817   52.682137
H   96.905540   89.811188   43.765656
H   76.769058   85.146286    3.415720
H   51.993126   60.466934   69.577538
H   86.977997   86.883446   64.074730
H   40.122063   26.985268   13.808806
H   13.842505   43.378254   89.004066
H    7.949560   50.142830   70.975113
H   64.021339   81.861443    5.321054
H   36.602978   70.571800    6.539516
H   51.727711    6.253938   99.400467
H   73.897186   88.224197   70.330406
H   84.688789   79.553085   73.984367
H   94.567413   21.538895    0.453297
H   61.442600   75.077370   26.899113
H   17.240789   50.089237   84.196793
H   53.216881   47.484783   22.475229
H   17.348515   51.109577   18.361002
H   56.778255   95.039963   67.335098
H   47.896873   31.001125   58.456367
H   28.903296   78.030602    6.916561
H   45.164921   35.566933   51.863770
H   75.431122   65.786255   38.801430
H    9.592991   78.119263   40.847572
H   52.591377   49.317139   58.835335
H   70.297676    6.650407   82.644638
H    5.648451    2.354459   63.198868
H    9.732553   10.320692   76.350639
H    5.486869   63.013878   64.297874
H   53.484676   47.659157   68.582893
H   20.437160   71.595352   88.373695
H   70.136993   28.546305   59.907322
H   55.462273   37.869919   57.503334
H   31.039577   46.953964   69.895004
H    7.541718   94.477707   64.412415
H   16.418911   87.956856   96.745110
H    6.876515   61.201256   18.364618
H   11.164459   82.920502   34.268444
H   11.909280   70.975288   28.819168
H   39.202866   54.458832   53.309277
H   26.559814   34.694752   81.318863
H   14.735836   36.974102   46.074318
H   76.389153   30.286522   65.364655
H   76.033768   39.645931   13.629719
H   17.182682   36.962955   28.178659
H   28.620989   42.564114   35.018147
H   54.430389   27.777309   44.789642
H   45.661079   88.231125   62.369286
H   86.615089   17.973732   48.875465
H   25.561079   25.094318   25.653093
H   24.956047   81.866920   87.239113
H    0.259003   29.395365   58.364540
H   67.449059    7.234519   77.425438
H   29.964632   68.951942   51.532253
H   15.911656   40.241409   79.572685
H   81.142303   43.565041    9.677619
H   28.574543   64.508736   13.783605
H   13.459871   99.755104   84.979820
H   11.660828   30.714270   95.246140
H   56.510258   55.372200   49.045418
H   10.761725   11.137062   70.144089
H   20.046041   95.960693   37.822655
H   94.298904   23.282209   17.912668
H    5.767929   17.872374   67.341850
H   80.179848    0.088062   82.879845
H   89.280365   82.922981   38.451881
H   93.202087   13.598343   67.619247
H   94.487907   23.021286   80.654755
H   19.598459   65.276718   84.609520
H   47.722984   78.589821   34.487553
H   40.286713   30.308002   65.524765
