100
TIME:    3.770, STEP:  3770
H   62.372467   76.293152   95.694473
H   96.400108    9.147432   15.810108
H   44.557610   45.132561   79.088356
H   82.109390   77.325859   33.516201
H   61.403503   74.939629   63.484360
H   69.562996   97.123772   52.102257
H   55.383419   15.905409   85.271843
H   23.571732   14.755385   62.046062
H   60.954140   23.823380   62.780315
H   71.816673   70.514977   55.320816
H   49.578812   17.936390   76.603493
H   11.949005   12.661102   24.576044
H    3.453331   33.617279   50.421234
H   68.412651   93.455666   44.139294
H   26.358864   33.275375   69.553383
H   49.941284   81.991020   20.098429
H   20.946297   31.326908   16.586325
H   81.702110   11.365609   68.844421
H    3.987597   36.509895   61.978779
H   90.949150   25.756136   73.011772
H   40.559570   80.902100   54.916954
H   23.813919   49.088715   98.227982
H   35.409096   63.961052   24.486500
H   68.767647   81.896912   27.080135
H   94.747955   87.179337   64.382118
H   29.370344   15.276633   35.808731
H   36.987400   85.762894   74.773964
H   14.440513   32.410553   91.387077
H   93.145432   91.136124   78.962624
H   45.551285   97.531853   83.093018
H   64.430733   60.117863   11.108543
H    3.797378   48.348984   50.256264
H   35.910999   92.651573   37.428329
H   37.393524   28.224648   12.927250
H   87.058640   73.936974   54.293892
H    0.347909   80.639069    7.673481
H   41.391006   66.470200    5.526610
H    8.172139   89.956825   88.480141
H   85.939636   99.277092   78.971397
H    8.101933   59.249290   34.649799
H   77.599167   85.541672   31.165266
H   92.794998   81.058350   79.919296
H   43.714054   86.107513   73.783989
H   38.618530   75.954010   49.344162
H   29.636412   83.146118   78.719666
H   29.449474   34.823780   98.475624
H   71.187790   29.863827   61.654625
H   56.440754   34.199738    1.844186
H   75.229477   20.218506   94.086639
H    4.945659   88.119118   19.986034
H   43.256992    5.674038   93.167099
H   88.348129   13.911083   26.568302
H   87.076424   43.868469   83.914009
H   89.389427   45.696404   98.177032
H   40.620621   88.980408   32.411854
H   98.283340    8.568563   64.287109
H   35.253231   80.764824   14.545937
H   45.333977   20.857674   16.448456
H   87.608864   98.059799   22.057812
H   10.238519   17.562376   56.382820
H   97.514717    3.250722   20.457401
H   65.109947   92.851456   24.773384
H   30.005213   50.025322   74.950249
H    1.918083   62.302368   24.784306
H   81.960808   59.741299   46.653034
H   69.748116   54.854927   69.095627
H   85.094070   78.700134   49.078289
H   19.946266   33.148209   46.430401
H   44.799263   78.898178   23.784359
H    6.767008   37.762619   93.794586
H    2.317057   38.889412   16.924240
H   63.112312   26.406342   32.643147
H   61.180527   31.826550   65.088371
H   47.220272   10.805943   79.153709
H   43.937878   34.013348   87.189247
H   14.781037   49.194977   42.256161
H    9.246157   99.787643   57.723576
H    9.101787    4.208969   22.642397
H   42.297287   42.445049   59.747635
H   14.637527    3.630917   96.132439
H   84.650314   68.284042    5.313294
H   24.191849   68.848526   71.532349
H   56.326962   70.185730   88.973846
H    9.520605   34.766426   19.086029
H   68.761551   13.068094   82.293259
H   64.528748   47.533638    3.583357
H   18.944510   29.243217    3.311437
H   16.640772    3.459043   56.536186
H   33.922958   84.264915   97.357063
H   33.019665   54.169151   58.983765
H   78.306519   76.999931   13.077310
H   57.237556   79.027885    5.361788
H   27.117973   40.636230   10.544413
H   11.612082   41.911270   81.009850
H   91.408455   12.035427    2.718329
H    5.308150   46.857674   72.723473
H   63.357452   84.033287   20.373091
H   20.704824   48.336975   95.711647
H   29.119164   53.101284   29.259857
H   73.379280   81.888496   34.563690
