100
TIME:    4.338, STEP:  4338
H   23.960812   24.204529   95.174454
H   80.670723   39.934052   51.631317
H   54.320976   85.997429   72.423439
H   82.204727   53.924980    2.381703
H   56.315979   20.467333   48.083115
H   60.755733   96.508415    8.352428
H   25.616169   54.261181   29.690256
H   78.928047   63.892925    9.892565
H   46.991615   69.212357   27.024942
H   56.294090   78.670616   77.562012
H   96.744843   40.791248   21.891708
H   90.270500   41.132042   84.145760
H   67.250381   99.262062   93.976562
H   40.288261   91.704933   87.363571
H   33.268227   82.539917   42.248905
H   27.103294   32.311821   72.949158
H   75.270943   68.894547   68.293602
H   93.835899   83.743614   49.149746
H   12.834183   60.339790   91.905609
H   75.643242   13.693850   11.683786
H    6.853638   24.355602   39.502708
H   78.268631   49.842743   49.857498
H   27.825478   59.341545    8.234241
H   15.994331   88.709167   84.895432
H   74.432526   42.134872   68.576942
H   26.771269   98.411591   82.492348
H   88.008354   62.153667   86.041054
H   66.513031   58.922882   10.161540
H    5.496293   42.669033   52.112282
H   67.331436   83.473991   28.246769
H   86.782906   11.052745   66.170189
H   39.661083   32.657394   97.673683
H   75.920876   51.093346   88.598251
H   61.392426   76.170959   88.998711
H   72.940109   31.000694   88.882645
H   49.732380   25.199909    5.790009
H   95.869919   45.669418   50.282703
H   84.694405   79.565102   28.562222
H   61.966366   86.900627   23.927649
H   54.601707    6.073813   79.339661
H   38.779709    5.032721   44.547100
H   41.746414    6.548941    6.604602
H   48.606571   89.513641   14.812464
H    2.348868   85.470367    4.881772
H   80.365868   60.733910   27.325373
H   22.121532   45.657520    0.782257
H   75.625290   60.753136   67.108025
H   56.471088   40.049957   36.988762
H   91.835434   73.175873   71.431122
H   16.858440   96.760109   80.258644
H   43.213657   50.837776   99.155991
H   15.951250   61.206219   89.279907
H   98.854866   47.161926   50.925716
H   76.232933   36.427055   23.239979
H   95.396545   38.760258   37.243702
H   98.994034    7.970568   44.951050
H   71.261124   64.375542   68.567329
H    3.039382   67.217064    1.817417
H   32.405426   22.060139   78.453072
H   72.754669   61.222347   40.227547
H   33.345520   76.834129   76.170692
H   44.950523   87.564590   99.072113
H   68.568367   11.265506   36.000786
H   40.922279   65.394104    9.361393
H    4.504182   14.374771   99.547691
H   34.854805   26.617867    2.680135
H   39.523026   98.339539   76.500656
H   80.710350   65.632095   73.584084
H   73.108597   38.085312   88.160583
H   18.274607   66.333008   92.598541
H   84.280907    0.241949   10.109818
H   16.279491    7.555161   74.230644
H   24.146009    3.732494   50.523811
H   34.713802   74.863152   45.404442
H   71.322395   34.823711   30.248289
H   28.210443   85.598106    4.037755
H   60.818138   50.557941   67.768623
H   35.787457   67.070625   54.012573
H   69.534187   40.776653   66.086113
H   86.781403   72.698143   47.198601
H   95.761398   74.160263   39.260540
H   66.811501   72.557999   24.036867
H   92.261238   79.667419   43.073132
H   48.596985   83.370918   67.206741
H   41.105179   77.540871   27.231857
H   51.454762   68.398506   43.027176
H   56.879936   87.944977   30.396208
H   25.782282   57.983437   50.629631
H   45.710068   52.639061   92.711555
H   82.801315   30.798607   79.289459
H    1.551419    7.671774   25.072428
H   99.264496   21.740646   16.185358
H   63.527718   57.679871   54.468731
H   66.512863   76.365341   19.308084
H   81.588753   61.158989   15.769736
H   52.222610   24.428230   43.385704
H   18.272419   16.629314   87.706375
H   22.789236   53.173157   86.619972
H    2.060933   55.549709   81.684074
H    8.661688   67.310616   79.847183
