100
TIME:    4.050, STEP:  4050
H   43.436920   50.615662   95.438126
H   88.624825   24.326876   33.470917
H   49.370537   65.277214   75.802834
H   82.156387   65.790215   18.168348
H   58.895569   97.382866   55.892197
H   65.222176   96.820427   79.831444
H   40.709652   34.813183    7.168272
H    1.564284   38.978130   36.336529
H   54.071205   96.902298   45.154278
H   64.164696   74.535362   66.285645
H   23.533890   29.202869   49.632587
H    1.261474   26.696009    4.646037
H   85.628311   16.678635   22.593826
H   54.548515   92.592628   65.448044
H   29.765083    8.265238   56.093876
H   38.683350   57.501274   96.855408
H   98.430122   49.845890   42.075829
H   87.683556   97.748985   59.136318
H    8.348465   48.257027   76.731293
H   83.403984   19.809938   92.075493
H   23.943970   53.027721   47.318382
H   50.657791   49.460419   74.383377
H   31.670692   61.683830   16.474567
H   42.752632   85.255066    6.284159
H   84.733307   64.975357   66.449989
H   28.085402    6.934085    9.564358
H   12.842436   74.124710   80.328163
H   90.814789   45.480011    0.641337
H   99.233688   16.539799   65.726540
H   56.287979   90.601921    5.352328
H   75.449409   85.226784   88.955833
H   21.476515   40.613693   24.335243
H   55.634815   72.165123   62.652939
H   49.223969    2.564478    1.131925
H   80.098801   52.771202   71.344070
H   24.695612    2.633838    6.707104
H   68.245895   56.216293   27.589346
H   96.599190   84.834145    8.239502
H   74.122009   93.176018   51.836998
H   81.728386   33.035606   56.680744
H   58.462814   95.150436   37.761944
H   67.630203   93.623657   93.074203
H   46.125858   87.786591   94.009819
H   20.738955   80.645172   76.721802
H    5.348539   72.097534    2.679744
H   25.837109   40.164356   99.612099
H   73.375290   45.091026   64.343864
H   56.455708   37.083649   19.168938
H   83.415512   97.029388   82.918427
H   10.818156   92.378761    0.403130
H   43.235630   78.641975   96.119370
H    1.955767   87.929596    8.186039
H   92.882698   45.492004   67.653023
H   82.903831   41.127007   10.532092
H   18.326920   13.520266   34.793751
H   98.633682    8.273764   54.755249
H   53.003170   72.685600   41.176216
H   24.484367   94.414818    9.235975
H    9.692289    9.890860    0.561992
H   91.761017   39.084896   48.418953
H   15.177536   90.228661   98.626747
H   55.172203   90.245255   12.103566
H   49.015415   30.918816   55.749809
H   21.145296   63.825500   17.181461
H   93.073479   37.377102   72.727867
H   52.547188   40.935249   85.651413
H   62.629471   88.381531   62.596355
H    0.604411   49.161392   59.816021
H   58.755257   58.779160    6.222706
H   12.439768   51.846786   93.204987
H   93.425926   19.837826   13.565018
H   40.026070   17.113739   53.144550
H   42.924301   17.977367   57.908821
H   41.055111   93.087273   62.516747
H   57.436718   34.412823    8.415160
H   21.401117   67.141075   23.416256
H   34.668480   75.520065   62.675358
H   22.256695   85.901192   38.106567
H   55.723495   41.622601   62.872940
H    0.905442   88.382225   72.010124
H   90.127609   71.180771   22.047796
H   45.201675   70.677139   48.119263
H   74.041512   74.859802   15.642467
H   28.784063   58.726387   93.512405
H   55.128128   95.554054   55.150314
H   58.083912   57.819588   23.027664
H   37.645073    8.884941   16.663298
H   21.147150   81.041542   53.624504
H   39.733505   68.674706   95.067024
H    8.263747   42.648460   68.993073
H   89.765259   92.120171   18.990396
H   77.955414    0.082579   10.697426
H   45.066292   49.038025   32.197247
H   38.675900   58.896439   99.889854
H   86.567757   86.955132    9.152122
H   28.435013   35.800545   58.261192
H   41.132111    0.102011    4.269506
H   21.732351   50.721008   91.229836
H   15.780540   54.308254    5.806183
H   90.772469   74.702217    7.590308
