100
TIME:    2.444, STEP:  2444
H   52.044342   97.894157   96.908463
H   33.285988   37.254494   32.166706
H   21.764959   49.734909   94.647652
H   81.886826   31.958330    6.198512
H   73.280365   68.654892   99.438675
H   90.119881   98.560326   20.783106
H   24.880795   26.367996   81.576836
H   27.792717    0.039795   83.794106
H   93.549751   51.312790   46.246372
H    8.053125   51.475578    3.392533
H   72.920105   64.582169    4.331388
H   62.562241   46.195663   18.962378
H   87.799492   13.842148   82.215019
H   34.068626   97.542763   43.230076
H   10.227982   51.719147   33.291069
H    3.255906   97.967804   30.168631
H   27.573486   43.622627   95.873810
H   53.371902   75.848854   14.815781
H   83.330742   80.882492   92.122559
H   26.673340   53.911694   82.731544
H   19.246201   12.908985   90.909180
H   96.689011   47.328430   11.149063
H   53.113106   74.745323   62.424667
H   91.967407   65.993652   25.560989
H   42.171867   92.342651   54.594009
H   35.452595   54.783962   60.094841
H   51.330490   40.883160   48.464893
H   26.324579   70.517372   47.558270
H   64.313187   70.830818   41.642479
H   94.707802   30.351242   77.679741
H   12.243138   41.212704   16.018627
H   20.072670   84.986900   73.010750
H   42.509846   89.667976   17.971777
H   81.365746   49.744705   68.789261
H   20.020538   74.172424   73.550163
H   85.050491   76.474052   12.238404
H   14.210752   15.031290    1.043069
H   62.973999   14.221920   94.908394
H   41.911530   28.165102    7.470726
H   32.996235   83.384315   30.322657
H   68.219505   40.042637   99.924118
H   11.968414   21.545425   17.622583
H   32.292439   78.155884   78.005577
H   23.293009   53.733330   19.695688
H   44.656452   35.462933   65.250710
H   46.556606    9.532337   93.093605
H   60.825321   57.750885   48.917854
H   56.369938   20.546602   19.798759
H   36.469940   30.037334   46.982750
H   77.143517   67.946663   12.728703
H   43.358158   33.691490   79.185989
H   23.906172   36.954075   13.617176
H   59.577942   36.179871   60.927322
H   20.096737   67.334206   39.662750
H   46.194000   72.759857   21.144117
H   96.624222    9.963423    9.427277
H   51.189785   19.026711   88.432106
H   44.071381   46.082169   50.604324
H   83.029854   42.034191   23.855669
H   97.740860   15.641439   94.097420
H   13.869825   64.912666   23.842609
H   12.170956    5.194731   84.771301
H   40.007809   40.491188   65.890305
H   10.864035   55.089249   60.789204
H   29.327965   65.646912   23.165804
H   51.206398   20.774422   90.693703
H   91.481453   32.858677   85.058182
H   11.542074   57.312317   83.039932
H   78.711418   74.176079    6.948174
H   79.898743   71.070381   96.586761
H   44.424995   29.110258   32.832821
H   72.447449   70.413452   35.559753
H   47.638580   97.417473   99.080070
H   76.406059   94.717972   57.954369
H   80.006004   32.121548   86.669418
H   83.436058   64.211662   31.479755
H   88.854340   14.716864   34.273350
H   46.803890   90.913445   49.413921
H   78.710693   46.339931   44.947083
H   79.666939   75.849518   10.368388
H   58.709347   54.565960   26.060608
H   24.699356   60.188736   82.411476
H   72.433975   48.050659   62.678806
H   18.294910   21.297823   40.197418
H   33.327545   96.009918   10.833995
H   95.040344   98.825844   11.502070
H   30.383963   25.654221   40.082733
H   95.298737    9.621887   70.329720
H    6.401956   58.094017    8.204828
H   50.256519    8.721176   11.585658
H   24.041199    5.401246   85.074539
H   59.121830   79.312798   80.091301
H   42.095341    0.864944    7.989471
H   83.449745   61.480816   91.605080
H   14.335369   30.811012   72.247429
H   95.785934   99.221077   41.213287
H   68.609146    7.936666   96.632622
H   15.838668   37.046875   16.930305
H   92.287071   47.385418   40.327675
H   91.021957   15.927183   62.293610
