100
TIME:    3.387, STEP:  3387
H   88.273590   11.416134   96.045120
H    7.054190   88.382507   91.650986
H   37.974213   17.578316   83.582481
H   82.045105   93.104973   54.511189
H   64.834000   44.240490   73.869354
H   75.500618   97.538704   14.171675
H   75.456703   90.043739   55.320747
H   53.674774   81.620285   97.210274
H   70.369011   60.647156   86.887444
H   82.283485   65.015663   40.321892
H   85.204544    2.525982   13.496843
H   26.568062   93.463654   51.838448
H   27.815681   56.789200   88.488762
H   87.376808   94.636177   14.991764
H   21.699642   67.486832   87.962349
H   65.340530   15.489826   51.890968
H   51.744789    5.995298   81.720322
H   73.520348   29.990990   82.122253
H   98.021950   20.441500   41.801968
H    1.269493   33.889347   46.935326
H   63.287338   19.030518   65.311081
H   87.095337   48.580276   30.843918
H   40.522697   67.075966   35.445221
H    4.352517   77.303436   55.526371
H    8.446073   17.552902   61.553566
H   31.127962   26.688684   71.706841
H   70.014893    1.682471   67.176613
H   46.756313   14.533401   78.728722
H   84.817566   56.387009   97.067696
H   30.865135    7.011529   52.645172
H   49.355915   25.774649   41.410286
H   79.614510   58.929756   85.712517
H    8.932695   20.673130    2.924664
H   21.210194   63.324409   29.061394
H   96.578705    2.888799   30.972946
H   67.042305   50.552250    8.995622
H    4.656761   80.496078   75.347710
H   24.001289   96.963921   61.451382
H    2.104772    7.621153   16.086809
H   44.175709   95.103333    4.515947
H    3.774799   72.398254   22.141951
H   27.216911   63.870781   61.925262
H   40.415051   83.810776   46.119831
H   63.076157   69.537170   11.897204
H   62.857395   98.259003   45.945858
H   34.390675   27.518635   96.921089
H   68.195602    9.033937   57.975754
H   56.420300   30.255606   78.146309
H   64.032150   51.937447    9.364457
H   96.914055   82.292534   46.772541
H   43.286213   42.650803   89.128815
H   69.734619   49.451332   51.712612
H   79.134270   41.647705    6.157146
H   98.260796   51.946686   81.275848
H   71.115219   55.412552   29.155035
H   97.804123    8.971807   77.325333
H   10.973697   91.816048   78.119286
H   73.853264   57.027359   26.314785
H   57.401268   81.877441   51.461987
H   35.511566   88.123825   67.276253
H   73.355141   21.061604   50.317913
H   78.703362   96.416367   42.104111
H    4.003278   76.160210    1.213713
H   75.619438   60.218941   35.183910
H   66.760262   90.329811   10.985532
H   93.276527   73.895058   46.449677
H   15.823120   65.457367   30.587393
H   46.402580   11.243079   28.120787
H   25.709457    6.418098   47.806599
H   99.007385   18.498514   94.601074
H   14.479393   64.948326   21.519176
H   94.693832   39.117294    4.601580
H   86.152435   50.770252   74.906487
H   55.653332   35.043137    1.910706
H   25.472876   33.466923   58.155674
H    5.726218   24.647203   68.026245
H   74.473213   32.983734   50.950245
H   91.107742   29.252523    1.490029
H   23.932150   43.570042   55.472664
H   33.420570   24.490032   29.128036
H   77.158157   64.321732   82.422089
H   95.454254   66.347244    3.558251
H   32.094334   63.792267   52.494877
H   83.170013    1.991596   54.065987
H   87.410126   37.025959   19.420631
H   73.341675   33.463928   76.986710
H   93.364784   57.090431   85.048477
H   10.476690   34.122818   60.518951
H   25.973854    5.589870    0.489674
H   66.883148   69.926712   45.293922
H   62.632599   56.318691    4.989053
H   28.896673   50.226685   98.063210
H    2.567913   29.143774   80.926353
H   74.594704   18.678825   55.185699
H   98.029839   46.343311   93.917320
H   73.673889   61.982246   92.505806
H   93.758545   62.053570   42.400337
H   19.299314   45.075958    1.841487
H   47.364494   51.450321   61.341133
H   49.589657   91.718300   71.459930
