100
TIME:    4.959, STEP:  4959
H   81.965736   67.255775   94.605911
H   63.519691   73.585678   90.786438
H   64.995804   30.673790   65.136620
H   82.308960   28.340229   68.344734
H   50.753738   70.243225   31.244888
H   51.123676   95.835640   69.853294
H   93.069420   96.192291   78.253265
H   30.118675   17.618916   52.875683
H   31.726250    9.505791   87.935524
H   39.323097   87.587257    1.877006
H   38.980927   65.778687   62.072605
H   66.571754   72.259743   39.941582
H   27.622971   61.709831   32.270752
H    9.541072   89.790840   34.622368
H   40.820366   27.069334   12.397100
H    2.132552   77.996719   21.400818
H   25.333961    9.970860   24.825682
H    7.112873   53.528721   27.621038
H   22.506512   86.389175   24.621775
H   58.910583    0.506047   53.964394
H   70.002632   62.534157   22.648846
H   37.804504   50.667130   96.973648
H   19.534233   54.290993   90.466736
H   58.296192   96.152313   38.774567
H   52.221466   92.885559   73.163185
H   23.940401   80.057144   24.096476
H   34.458511   36.337101   98.359474
H   14.116113   87.909073   30.690325
H   19.000099   99.011589   22.757286
H   91.143890   68.104393   77.615028
H   11.222348   66.737762   17.038643
H   78.871559   15.501590   40.184563
H   19.662239    5.658670   44.542839
H   87.630661   19.259857   62.836281
H   57.504181   84.057632   26.696861
H    3.715420   73.838722    3.836262
H   55.431007   22.926773   99.215256
H   59.025631   68.203728   72.383537
H   35.751820   73.369316   63.748306
H   96.111305   47.938667   28.197783
H   96.339691   26.338934   59.177593
H   85.933800   34.420097   35.776775
H   53.955608   93.237595   59.666603
H   62.693302   95.879456   65.600021
H   26.499525   36.234467   80.465355
H   14.109541   57.502155    3.306710
H   80.476852   94.524559   73.068245
H   56.504253   46.446060   75.412758
H    9.988533   21.745625   46.658302
H   29.882801    6.210501   36.824966
H   43.166279   90.883728    5.702677
H   46.130119    3.580824   48.513611
H   11.735862   50.762695   14.857561
H   61.849518   26.292786   50.642967
H   45.952301   93.186531   42.526409
H   99.771042    7.317336   23.810745
H   10.631728   46.456978   27.629723
H   56.797989    8.571110   85.822250
H   81.382301   48.299271   30.777542
H   31.775959    8.952573   22.564827
H   72.518097   47.954807   27.753372
H   22.911005   81.784409   70.976639
H   10.726418   68.889816   93.416931
H   83.565529   68.776932   92.501480
H   29.152952   64.778137   57.379246
H   96.706932   95.746605   39.398109
H   89.698303   19.808640    6.482219
H   37.813820    1.147116    3.271476
H    4.056769   93.464226   49.213623
H   30.855978   97.564941   91.290894
H   64.561958   57.989761    2.659914
H   65.073822   86.945267   19.696144
H   83.654984   73.012825   34.599884
H   21.042210   35.563961    8.506954
H    1.265508   35.709690   77.323700
H   42.893051   25.397711   62.250401
H   17.199656   96.732857   78.750969
H   64.963165   26.463158   88.306541
H   99.316338   38.952579   73.012856
H   56.326477   38.875820   93.699036
H    7.911933   80.584793   76.376884
H   13.404599   76.613602   72.108910
H   31.542574   90.051331    2.213225
H   91.321243   36.511765   10.489509
H   10.866738   38.696854   67.032982
H   37.160656   91.206535   86.151123
H   98.355110   42.793228   60.007797
H   35.777679    8.265343   44.171936
H   58.597031   18.063158   87.632576
H   27.896124    5.247360    1.490840
H   26.965416   41.203281   38.186810
H   45.214680   68.443512   28.017225
H    3.335043   76.316978    2.491643
H   26.533836   14.032258   61.177219
H   70.852776    5.531872   30.037804
H    3.514657   99.906830   11.310259
H   68.980278   52.267452   51.992432
H   25.068144   58.460602   76.679955
H   72.477814   58.226597   29.668785
H   47.232784   51.376232   20.024031
