100
TIME:    7.758, STEP:  7758
H   92.680656   10.575524   92.043350
H   86.219986   25.258297   67.273270
H   13.123857   32.044968   32.272511
H   82.778763   13.020611   14.919857
H   25.680658   94.595253   55.353699
H    7.710641   92.803276   47.047104
H   46.372791   85.194946   97.138855
H   10.122795   59.766506   95.879478
H   62.921425   40.393387   11.748043
H   62.861244   27.778383   11.475792
H   78.624771   78.402634   92.459778
H   59.742050   12.558889   40.705727
H   49.047859   92.404739   54.137562
H   70.951500   81.163551   47.627987
H   74.834663   77.050034   77.818878
H   89.590332   33.186035   89.058868
H    0.254717   95.102905   79.629700
H   66.968216   17.334503   30.595615
H   66.094757    3.809251   72.082306
H   83.502548   41.062969   44.533302
H    3.905992   83.883911   46.676983
H    6.147355   54.382843   58.612915
H   82.161720   31.527132   10.384196
H   98.227539   29.636446   30.896908
H   52.113350   70.912735   93.834511
H   11.027737   97.397629   60.821037
H   93.097794   19.985533   53.901196
H   77.943779   18.556906   23.210066
H   79.860924   52.958302   90.447838
H   98.470047   98.828598    0.127827
H   21.381021   17.730816   95.590813
H   55.602108   38.165585   81.067162
H   16.819704    0.870667   96.698860
H    5.895301   62.748299   44.918518
H   87.880379   72.280571   97.054001
H   47.027149   93.068329   95.036079
H   23.892479   20.420790   19.765226
H   43.339485   16.975613   69.900887
H   17.603489   12.383799   92.504814
H   32.476868   85.905396   48.418289
H    5.047652   22.379095   25.119596
H   46.412010   72.026154   76.018944
H   78.052582   10.025799   61.840717
H   83.969040   42.860130   39.271488
H   83.706490   25.801746   19.983135
H   77.982750   10.886985   14.678999
H    2.345466   46.744942   99.932426
H   56.661129   75.274872   48.598614
H   91.805550   89.932869   35.003929
H   88.620850   48.815159   41.093086
H   42.968891   20.658808   35.207184
H   82.167130   43.854130   64.772430
H   69.796700   66.992249   52.298439
H   97.037109   80.626053   74.155655
H   23.091599   38.478920   66.334778
H    3.258339    4.373060   28.526169
H   88.075592   65.692604   93.837715
H   48.378830   44.240242   13.726329
H    2.130869   66.572472   15.904266
H   47.070129   24.093616   42.954613
H   49.081463   17.789024    9.521974
H   23.571358   55.731705   44.329842
H    0.750637   77.890900    1.481110
H   75.768486   84.024170   16.508198
H   40.251251   41.225849   18.037775
H   24.761497   56.600151    4.897504
H   65.129639   16.577122   41.618999
H   44.467705   61.225761   37.079865
H   43.560471   92.345940   73.665344
H   87.585701   38.308239   85.389008
H   75.680717   67.547882   69.089668
H   34.415180   94.003319   24.704809
H    1.154484   34.570164   62.837475
H   59.421413   58.414616   42.199097
H   36.181183   39.738438   89.518555
H    9.059087    4.787363   73.913582
H   71.374718   54.326729   28.330194
H   96.465271   43.445461   42.885548
H   33.537354   30.731030    4.235601
H   19.065628   86.404106   52.562538
H   62.690712    9.542428   43.667969
H   23.450935   94.782394   37.970005
H    8.585145   36.859287   68.776596
H   83.887062   76.027954   54.843014
H   74.579941   63.609875   95.702019
H   72.742966   94.017914   80.522202
H   85.294060   39.282677   93.474648
H   80.799004   84.271423   15.139557
H   16.684444   62.219139   64.740364
H   80.427673   90.090103    1.547944
H   41.512043   92.341560   97.296555
H   52.312336   78.955276   81.346794
H   82.756317   60.299282   18.942629
H   97.047066   83.841759   49.908779
H   22.460976   54.816032   94.357758
H   34.700607   89.377502   66.738106
H   46.808556   12.895293   91.018761
H   23.302584   70.323967   23.139727
H   39.139702   70.303123   95.222847
H   21.090975   79.549911   50.388081
