100
TIME:    6.790, STEP:  6790
H   58.142166   99.345497   92.929581
H   12.953018   72.805092    6.236072
H   96.482880   62.403694   43.638416
H   82.616287   52.902740   67.981201
H   34.353638   17.005781   81.600891
H   22.723843   93.851982   51.183109
H   97.106918   19.830456   21.439997
H   86.205681   76.022705   84.758614
H   86.716713   33.462662   72.681496
H   89.300453   13.879053   73.573708
H   68.665771   39.452808   85.702171
H   96.683945   64.038239    9.609715
H   10.782761   50.984524   50.332939
H   18.880932   84.147194   73.962715
H   63.077339   63.516563   24.371807
H   28.513187   17.850929   69.411621
H   78.095650   31.076550   91.508827
H   46.268406   64.437653   64.147011
H   51.020428   63.204369   21.085957
H    9.584557   61.616131   78.627403
H   61.348495   80.251556   72.948845
H   13.344254   53.097809   41.047043
H   95.085915   39.399590   38.081406
H   88.169121   18.056368    2.788502
H   86.735420   47.679657   86.685585
H   15.591824   25.930878   51.914238
H   76.570198   60.226677   34.692150
H   59.620377   73.373955   91.213547
H   58.812950   65.133888   36.204437
H   61.351765   22.787590   23.173908
H   83.285072   30.928337   72.175819
H   94.482117   64.907837   70.679756
H   48.636036   71.693718    9.493779
H   64.995491   51.459702   85.699890
H   11.971706   45.571754   38.160744
H   62.880703   17.250595   98.078804
H   31.048683   55.871216   43.490696
H   83.348976   34.692837    1.593945
H   58.466099   33.472649   86.311111
H   23.651672   76.526703   72.258408
H   71.203293   89.165016    2.315006
H   27.989868   68.230133   26.602009
H   69.722015    4.219143   91.923241
H   45.778530   26.612570   44.625648
H   67.672600   63.990894   37.149235
H   90.478600   92.425705   10.746351
H   94.781540   94.100723   90.641777
H   56.602047   65.304779   88.704666
H   63.505386   70.101357   73.619583
H   68.296631   34.081577    8.774669
H   43.035358   14.112757   25.003296
H   35.120480   33.677879   28.315163
H   49.718327   61.379456    8.515577
H   19.452324   96.415726   31.439396
H    0.164545   53.648689   58.102314
H    2.052696    5.391302   61.479172
H   26.708620   93.623634    1.772865
H   20.458265   35.656136   38.661484
H   25.790062   25.666012   90.215492
H   10.949667   49.690838   70.486839
H   88.018730   62.803314   84.994095
H   57.927559   64.741714   88.127716
H   35.033344   43.945961   67.859772
H    9.296387   78.751099   42.792316
H    1.828525   18.537849   27.892458
H   84.227112    4.722288   47.661636
H   42.794418   83.109650   94.882706
H   11.334106    5.864193   90.803864
H   95.313820   61.900238   34.375851
H   67.946495   89.659111   87.435333
H    6.418680   33.410019   80.699287
H   14.102742   26.177174   53.755684
H   64.270523   82.445923   87.652405
H   80.733665   19.680710   99.715454
H   89.544304   38.321972   16.126095
H   86.177132   42.748348   39.048546
H   83.459564   38.109188   11.163172
H   50.986874    6.738356   89.425606
H   87.118462   33.574352   93.436150
H   66.537033   39.136635   35.956535
H   43.742714   99.527328   85.811768
H   50.812416   88.504929   18.953381
H   47.358582   20.670813   76.589035
H   17.291203   93.193871   43.255146
H   21.712629   24.166412   89.538109
H   95.016891   58.464149   13.301547
H   20.643541    9.664315   47.316811
H   65.230888   61.732327   25.176117
H   96.593857   16.116133   72.657356
H   66.012466   29.916943   66.940857
H    1.897423   40.072113   76.854172
H   80.690140    6.152530   62.898872
H   20.705418   31.253078   44.085701
H    3.494522   25.114222   84.638306
H   39.198067   41.523155   72.113373
H   54.747757   27.601530   16.736862
H   23.643980   57.343842   46.690399
H   25.171053   22.428886   42.572014
H   85.253227   66.123070   76.303978
H   60.962734    4.393098   43.638577
