100
TIME:    4.605, STEP:  4605
H    5.905404   99.719460   94.930008
H   73.296608   54.403206   68.466980
H   58.910446    5.206542   69.290459
H   82.249542   42.924919   87.747322
H   53.924484   41.868561   40.843445
H   56.614414   96.219154   34.794590
H   11.622826   72.290161   50.570004
H   57.942375   86.993042   85.378105
H   40.428246   43.541473   10.218100
H   48.997383   82.504341   88.016144
H   71.909149   51.534641   96.172821
H   80.081184   54.515450   65.140099
H   50.212509   83.116417   67.446045
H   27.068199   90.881966    7.681834
H   36.515282   58.690155   29.413670
H   16.367031    8.958944   50.786072
H   53.800453   86.555756   92.599663
H   99.543083   70.752815   39.893017
H   16.992817   71.540146    5.972675
H   68.448387    8.023726   29.862406
H   91.009499   97.774384   32.256927
H    3.866180   50.197189   27.119965
H   24.260643   57.170052    0.594800
H   91.187073   91.911407   65.066803
H   64.882843   20.959755   70.548805
H   25.554132   90.520065   57.384228
H   64.985634   51.053791   91.337379
H   43.985088   71.385544   18.987734
H   11.302390   66.893608   39.490730
H   77.569641   76.865807   49.472633
H   97.290001   34.994961   45.045998
H   56.519695   25.281242   72.956139
H   94.726906   31.558077   12.651723
H   72.673599   51.701935   77.750130
H   66.303406   10.817488    5.141731
H   72.942505   46.112247    4.949982
H   21.478762   35.891586   71.321335
H   73.657677   74.680260   47.402882
H   50.695377   81.082817   98.053940
H   29.454241   81.078865    0.345719
H   20.532471   14.193410   50.837505
H   17.749790   18.532404   19.147913
H   50.906399   91.114761   34.098076
H   85.298889   89.943726   30.987566
H   57.205227   50.200333   50.173115
H   18.676884   50.750141    1.867679
H   77.711227   75.273216   69.670631
H   56.485348   42.799973   53.509224
H   99.641403   51.062870   60.780815
H   22.458286    0.822394   61.583252
H   43.193287   25.060692    1.970839
H   28.926229   36.429600   71.753143
H    4.392881   48.710083   35.417667
H   70.048454   32.069809   35.021507
H   74.137909   62.159832   39.515011
H   99.328110    7.689710   35.861740
H   88.188995   56.671425   93.961174
H   83.157852   42.002480   94.940170
H   53.462395   33.342209   57.955688
H   55.135227   81.743851   32.633430
H   50.187836   64.416283   55.352905
H   35.474174   85.079391   86.992416
H   86.694023   93.045822   17.691795
H   59.257751   66.848557    2.111538
H   15.102010   93.050171   24.412901
H   18.452702   13.344547   18.466864
H   18.100763    7.570392   89.391098
H   62.266914   80.901810   86.348228
H   86.414597   18.900391   71.416046
H   23.683989   79.761230   92.036316
H   75.802711   82.075546    6.906646
H   94.264130   98.693771   93.778160
H    6.736394   90.524849   43.677292
H   28.834881   57.967144   29.539909
H   84.196541   35.204639   50.488491
H   34.523254    2.709513   86.071304
H   85.059280   27.415237   72.490501
H   48.331600   49.611439   68.758110
H   82.339073   39.992390   69.064278
H   73.687256   58.156872   24.196251
H    0.984717   76.922501   55.218777
H   86.843834   74.301712    1.709812
H    9.150194   84.131165   68.501633
H   66.965378    6.218595   42.820969
H   28.104429   60.840759    1.349399
H   45.308987   78.204857   61.568390
H   74.712257   68.531906   43.127762
H   30.079435   36.606651   47.853134
H   51.250839   37.772682   90.527840
H   59.195583   19.812805   88.835068
H   12.478293   22.088978   30.710978
H   19.021421   41.819832   21.272886
H   80.642998   65.692009   75.116257
H   92.318192   92.559875   37.310200
H   76.972801   37.242004   21.904327
H   74.275696   13.885384   29.594887
H   97.079460   31.951992   72.351105
H   23.769056   55.446503   82.346245
H   89.341644   56.700642   59.320930
H   25.245523   60.459042   54.126629
