100
TIME:    2.585, STEP:  2585
H   42.508942   84.963707   96.779373
H   29.363823   44.899811   41.060963
H   24.188612   59.879181   92.993156
H   81.910492   26.148771   98.469788
H   72.017441   79.956665   95.615479
H   87.933968   98.407570   34.746914
H   17.490967   35.889412   92.603218
H   16.710396   12.237865   70.848595
H   90.083702   37.756256   37.370403
H    4.200346   53.500130    8.914226
H   59.804626   70.255646   90.749222
H   57.180290   53.263306    8.926218
H   78.829933    5.311224   68.200218
H   27.087044   97.108162   53.960629
H   11.943256   39.124329   26.513239
H   97.586472   85.635468   18.463991
H   16.236973   52.947334    8.711099
H   56.385063   68.992058    9.927059
H   85.527412   86.796936   99.551651
H   22.874886   50.917896   92.331490
H   10.879059   98.871735   87.081680
H   10.206818   47.515610   99.141678
H   51.230553   73.598579   58.390625
H   78.866989   67.684723   15.088639
H   37.128777   81.159210   55.634254
H   34.806072   50.583179   46.879318
H   39.171349   35.021427   51.262905
H   14.427418   77.098778   52.219471
H   67.379059   83.623573   34.977165
H    0.114490   26.861526   88.889000
H   17.790537   53.856869    4.861976
H   28.975533   81.090553   59.957664
H   52.442196   79.351585   30.674170
H   87.323219   36.822861   62.848999
H   16.515224   63.513947   82.136757
H   97.309677   87.549919   11.753781
H   27.734474    9.867178   12.153106
H   57.146690   11.641209    4.858578
H   35.959435   25.093313   93.806854
H   19.715670   70.184929   41.416729
H   58.583591   44.880260    3.246716
H   99.296074   27.874031   24.246481
H   33.506954   79.001419   88.190727
H   14.289564   56.096741   33.481834
H   32.426311   29.900257   77.316261
H   44.737522   12.221699   93.665901
H   61.927959   65.418793   50.272217
H   56.377468   21.998320   28.523048
H   40.591118   18.360126   41.357681
H   80.099663   70.091698    2.867289
H   43.347401   20.078547   80.672668
H   30.758127   23.870129    4.360446
H   62.502892   36.997437   52.737679
H   16.831852   65.034264   45.884857
H   34.968605   85.120163   22.340345
H   96.800644    9.815239    4.627304
H   60.128147   14.958175    1.842370
H   33.572113   32.766602   46.972610
H   94.150902   47.991665   13.030989
H   88.435669   26.479567   90.087044
H   22.764555   58.355854   12.849498
H    7.167130    3.882053   78.392136
H   49.572254   30.876120   56.217209
H   20.546274   55.856255   56.960629
H   34.924809   54.385098   36.297058
H   42.544502   13.764870   99.030724
H   80.168922   37.732876   91.865494
H    1.802013   65.376099   89.780548
H   85.738182   64.044716   98.104897
H   82.755920   78.161690   96.289856
H   39.947746   19.516230   31.140949
H   60.821098   65.733963   45.883675
H   38.445267   90.442345   95.465569
H   73.303612   85.795746   49.574318
H   86.804710   32.322712   97.358017
H   86.768715   73.247917   21.992226
H    1.655781    2.495858   36.766926
H   53.428326   81.694313   57.201237
H   85.472824   45.925770   46.520897
H   72.752052   68.170853   98.221237
H   61.468632   56.024670   34.487614
H   35.279305   61.109573   70.621315
H   81.354050   50.404388   76.108398
H   27.994900   33.363373   27.318604
H   26.461708   87.190964   97.165779
H   91.795898    4.004936   21.293621
H   39.801033   15.402374   46.806137
H   97.568558   98.333237   68.862404
H    9.328341   50.243233    7.051250
H   37.789715    2.919685   16.625824
H   29.811493   13.014783   88.052200
H   69.554901   89.915337   82.778511
H   51.142353    5.089703   18.897861
H   97.077278   70.033302    1.112438
H   11.897194   18.180695   75.487572
H    7.432030   93.653023   33.930496
H   57.417099   16.028149   88.523659
H   16.356184   38.247406   14.674089
H   85.570122   47.993214   28.517075
H   99.778519   12.305420   48.713409
