100
TIME:    4.821, STEP:  4821
H   91.298256   79.911110   94.732254
H   67.331032   66.108292   82.085632
H   62.623276   20.745880   66.755913
H   82.285797   34.025993   75.908455
H   51.989792   59.181915   34.986633
H   53.264133   95.985146   56.186619
H    0.302512   86.874512   67.461487
H   40.965202    5.680374   65.546684
H   35.118553   22.774017   96.621590
H   43.094429   85.605782   96.473419
H   51.817352   60.225925   75.365814
H   71.838142   65.342476   49.764732
H   36.429062   70.054771   45.983154
H   16.373833   90.216194   24.120127
H   39.142113   39.395966   19.030766
H    7.681522   90.066666   32.856384
H   36.431068    0.843404   12.262999
H    4.161848   60.242786   32.404736
H   20.357105   80.600571   17.351801
H   62.628220    3.436659   44.568703
H   78.191750   76.271942   26.394382
H   24.574310   50.483932    8.725555
H   21.376732   55.413338   94.414948
H   71.118347   94.501434   49.024124
H   57.157257    3.829323   72.144020
H   24.569483   84.135910   37.073254
H   46.358948   42.074116   95.622047
H   25.760136   81.467697   26.128298
H   15.999457   86.491020   29.280258
H   85.852234   71.519859   66.644264
H    5.790926   54.363308   27.956764
H   70.158119   19.314018   52.959923
H    9.941578   15.755068   32.110710
H   81.799942   31.906769   68.650154
H   60.934387   94.489334   18.294014
H   91.719238   63.030094    4.270409
H   42.195549   27.981010   88.341354
H   64.729088   70.728477   62.644764
H   41.577274   76.376274   77.121689
H    9.109484   60.858269   17.340200
H    5.770934   21.604239   55.926373
H   98.336449   28.226465   29.294336
H   52.766933   92.410049   49.699211
H   71.505554   93.563171   52.107544
H   38.469692   41.678787   68.656517
H   15.890184   54.870014    2.745735
H   79.398727   87.019798   71.743752
H   56.496883   45.024704   66.874092
H    5.954973   33.174381   52.163689
H   26.988499    4.110052   46.476501
H   43.176807    4.206718    4.247893
H   39.423424   16.386236   57.573441
H    8.873408   49.962524   22.872431
H   65.045280   28.544846   44.553246
H   56.939911   81.091316   41.352474
H   99.598373    7.462499   28.508591
H    1.883282   50.438881   14.504784
H   67.073868   21.603743   89.376694
H   70.497871   42.468552   41.372375
H   40.882114   98.345291   26.489876
H   63.813080   54.371967   38.512512
H   27.808367   83.068893   77.220078
H    1.357557   78.306564    2.880020
H   74.089821   68.025192   96.247543
H   23.675467   75.799438   44.528080
H    5.184238    2.606922   31.238470
H    0.770172   15.037673   99.819321
H   47.346382   93.254837   96.674278
H   97.179001    3.380009   57.869156
H   28.060118   90.624512   91.581482
H   68.943947   67.379135    4.315452
H   76.453094   91.525192    9.592406
H   92.652695   79.839546   38.138535
H   24.079700   44.297405   16.706074
H   94.611580   35.512806   66.862518
H   39.630249   16.553190   71.536392
H    4.670103    8.693710   76.310448
H   58.479671   35.486866   80.685966
H   92.698082   39.357929   71.473579
H   63.094238   46.392162    5.587812
H    5.211488   79.157120   68.128807
H    3.050013   75.712357   83.648216
H   22.813341   87.743469   89.071335
H   81.826584   24.702600   23.093369
H   17.586393   47.329224   80.410576
H   40.337124   86.138084   76.568024
H   89.138405   52.826950   53.427444
H   33.556152   19.313677   45.606979
H   55.733261   25.746378   88.761238
H   40.097500   10.925415   96.557358
H   21.317894   33.752216   35.272503
H   35.004078   58.064453   25.388243
H   94.489067   72.175041   91.819870
H   13.195254    5.661486   51.873127
H   73.238548   17.893433   26.867126
H   92.116394    5.356074   18.438271
H   79.934196   44.347866   59.928864
H   24.561720   57.285614   78.888847
H   79.051849   57.631733   41.228096
H   38.661480   54.916988   33.317974
