100
TIME:    0.656, STEP:   656
H   72.959877   61.862770   98.545425
H   83.022377   40.312550   19.380430
H   91.035431   21.099163   15.637352
H   81.586716    5.622183    4.204983
H   89.295319   25.338814   47.917992
H   17.843910    0.499674   43.711628
H   18.589947    5.633018   41.752827
H   68.325989   45.353802   47.962845
H   37.502266   23.221786   58.795395
H   56.913124   25.804192   33.378517
H   39.235504   92.638260   76.559715
H   30.802715   56.572548   46.233910
H    1.534881   22.018661   59.927063
H   22.600422    3.054668    7.161168
H   88.480934   11.427648   19.238634
H   75.147644   54.359394   78.586411
H   71.325127   25.379318   33.081917
H   15.162536   62.799377   76.804001
H   55.479263    5.871786   97.924500
H   74.892067   91.778076   60.941673
H   25.348572   90.910187   39.438522
H   25.249500   44.965782   63.399487
H   76.985481   89.287010   13.580667
H   58.092026   44.549442   58.355576
H    6.122104   34.148777   41.402817
H   43.651051    8.063386   27.686674
H    5.510759   15.207471   12.983725
H   77.189140   87.059052   88.457657
H   25.435318    8.609656   26.162369
H   26.146925   74.603806   35.538265
H   41.906925   80.869576   57.501457
H    7.177445   34.387230   38.534859
H   16.565231   20.486052   56.894615
H    5.819450   13.604115   44.114525
H   64.465919    9.331634   64.672852
H   29.592087   36.017895   18.387129
H   42.717838   80.511574   60.155529
H   36.876602   46.947536   68.732430
H   21.228535   66.504326   79.252609
H    1.405951   50.771175   89.646843
H   90.411636   78.689369   57.797596
H   72.663628   41.299950   33.620014
H   16.891348   67.433777   48.856194
H   37.468857   23.765142   44.872566
H   99.752739    6.009681   12.243044
H   69.573265   75.536186   85.890800
H   43.006824   61.129887   33.228706
H   56.274448    2.137504    9.167449
H   84.205559   78.118942   18.305494
H   39.648205   40.734135   37.783028
H   43.494572    6.310713   60.333637
H   37.012596    2.866662   30.996788
H   22.487093   25.812439   64.772072
H   61.498257   96.499428   60.763874
H   88.535416   16.012922    5.972673
H   94.387039   11.842520   70.295013
H   37.838936   70.618324   18.378639
H   77.211609   14.935997   96.657547
H   42.013794   66.486145   61.123081
H   15.730109   78.210510   44.951378
H    1.081228   48.063148   63.247543
H   75.628418   21.839401   65.674835
H   18.728676   62.419319   88.553810
H   88.085701   45.362961    9.328680
H   58.361580    8.450029   56.653915
H   61.046211    9.661366   84.973701
H   34.936974   71.040436   98.733261
H   35.051491   55.054672   97.563194
H   89.596764    2.650346   19.088665
H   43.674950   81.138817    0.351295
H    1.200445   50.769138   54.279728
H   19.877142   29.754280    4.650368
H   64.219406   85.858162   44.928333
H   15.751899    7.866137   64.220573
H   93.800705   29.577108   51.127369
H   41.167767   49.616722   51.788448
H   26.515171   69.687614    2.641863
H   62.800400    7.826112   50.669559
H   92.995567   51.580906   25.003090
H   67.354050   73.228279   64.406189
H   23.719265   36.068279   19.196217
H   90.543251   48.511734   31.924015
H   59.302227   18.206522   92.380707
H   95.295990   68.296364    3.511757
H   20.387777    7.849874   84.160683
H   36.194347   33.149944   87.337791
H   10.967489   55.656380   54.823727
H   66.515472   52.772987   88.921150
H   69.296577   57.646965   22.833366
H    8.336967   82.292404   47.663952
H   50.868778    8.854319   47.315258
H   26.824312   44.843254   46.022392
H   27.373680   47.286102   69.664726
H   10.632135   53.024826   71.048302
H   45.250584   90.968750   31.159801
H   48.104507   69.826408   33.565834
H   10.532417    5.326966   99.461609
H    9.273765   21.823120   45.539825
H   77.461784   39.678051   90.101875
H   79.981277   61.855251   34.504135
