100
TIME:    6.818, STEP:  6818
H   56.248611   96.777748   92.903946
H   12.179810   74.322243    8.001586
H   96.964386   64.418159   43.309650
H   82.620987   51.749176   66.446533
H   34.102844   19.250105   80.841675
H   22.289547   93.821648   53.956150
H   95.639328   21.721233   23.629633
H   84.004936   78.445190   82.187874
H   86.028419   30.770584   70.919106
H   88.535683   14.281145   74.670021
H   66.061279   40.579456   83.004967
H   95.615402   65.441742    7.616713
H    8.996017   49.291134   47.550713
H   17.494625   84.060890   76.093391
H   63.417427   61.015465   23.025341
H   27.387287   15.401941   67.087402
H   75.844063   32.928448   94.057777
H   46.867191   63.075165   63.176491
H   51.456432   64.379013   22.561024
H    8.830254   61.021618   80.533775
H   59.686935   77.464203   72.188774
H   16.028641   53.134979   38.662582
H   94.712074   39.171867   37.280319
H   85.567619   18.391329    0.708958
H   85.733955   45.459045   86.892372
H   15.459805   25.105545   49.279198
H   74.155830   59.062645   35.247784
H   57.257919   74.680901   92.138962
H   59.421776   67.674294   34.880829
H   62.425434   22.094597   25.399754
H   84.386940   33.439095   69.960548
H   96.250061   64.134094   68.087654
H   50.608418   69.645073   12.016240
H   66.178535   48.893661   84.520264
H   11.274815   43.451759   39.864388
H   65.314720   19.443756   97.990791
H   33.734177   54.845825   45.696995
H   82.191566   34.180355    3.569771
H   57.284122   32.862541   83.597672
H   21.014389   73.905548   74.461288
H   69.289658   90.125893    2.974634
H   25.630188   68.339935   28.031467
H   69.962982    4.387104   93.945824
H   43.990719   27.082541   47.363228
H   65.243706   62.886250   39.545231
H   90.117149   92.959763   10.860106
H   95.000290   95.623428   90.910515
H   56.603756   65.593170   90.437149
H   64.323860   67.782265   72.502762
H   68.884521   34.507755    6.816883
H   43.033436   11.409464   25.298416
H   36.481472   31.079582   26.477150
H   50.299168   61.541809    6.889372
H   18.803978   95.959000   32.674942
H   97.935165   56.102577   58.340504
H    2.087570    5.361849   60.525986
H   28.483614   92.815712    4.435933
H   18.373411   33.011909   37.940292
H   27.998283   26.849270   88.066017
H    9.101988   51.843090   69.690453
H   89.784966   61.501282   82.810867
H   56.933784   64.481094   86.860931
H   36.934376   42.035316   65.939728
H   11.219101   78.903625   42.032032
H    2.939926   16.301537   30.500048
H   82.507019    3.330374   49.317215
H   40.547958   84.077789   96.234512
H    9.399910    7.465592   92.142426
H   96.709206   59.888336   32.619656
H   68.513878   91.067314   87.376373
H    5.529501   31.504929   80.363472
H   11.798444   25.245457   55.807747
H   62.444901   81.061218   86.934631
H   80.117149   17.908600   98.051758
H   90.894402   38.361919   18.248760
H   86.838936   44.542995   37.164604
H   86.002533   35.685635   11.659739
H   52.302364    4.907473   90.971809
H   88.461296   33.492107   93.748466
H   65.163864   37.611366   33.544304
H   44.290657   99.817001   87.485291
H   52.913399   88.686508   16.610897
H   49.129730   21.139074   79.255478
H   19.217548   95.589867   40.697865
H   20.349287   22.414917   86.823814
H   94.372604   59.492744   15.245997
H   22.513597    7.628439   48.651955
H   65.681206   59.491634   24.885803
H   97.174911   14.557169   72.428352
H   63.536961   28.764874   67.941895
H    3.043311   41.583923   77.445480
H   82.761856    8.258349   63.432289
H   22.500278   32.093258   46.250984
H    6.200565   26.812952   86.526306
H   38.713997   39.015007   72.756805
H   57.060440   26.495924   15.290607
H   21.421553   58.950714   45.080109
H   25.117006   23.814339   42.009972
H   83.919365   66.243980   73.958824
H   62.701839    3.674603   40.941158
