100
TIME:    0.516, STEP:   516
H   82.427650   74.701515   98.673599
H   86.916725   32.721455   10.549418
H   88.630035   11.027238   17.281181
H   81.563217   11.390539   11.879058
H   90.549286   14.117196   51.714073
H   20.014854    0.652047   29.846506
H   25.927364   96.179649   30.804644
H   79.329712   33.242443   60.817612
H   40.943733   36.682175   67.607979
H   60.739113   23.794533   27.895884
H   52.257965   87.005020   90.045738
H   36.146496   49.555031   56.199425
H   10.440120   30.488815   73.842155
H   29.532490    3.486320   96.507088
H   86.778358   23.932508   25.968294
H   80.776611   66.605110   90.207504
H   82.580925   16.120895   20.335520
H   12.171012   69.607544   81.657516
H   53.299240   99.998352   90.548096
H   78.681740   94.713257   51.390587
H   33.656372    4.847298   43.237808
H   11.825345   44.780998   75.319710
H   78.854683   90.425621   17.586472
H   71.099533   42.870365   68.753189
H   11.128885   45.251835   40.368973
H   44.292988   12.234643   40.808647
H   17.583132   21.027134   10.205557
H   89.002495   80.524323   83.830582
H   22.391190   95.907829   32.779938
H   20.779112   78.068771   24.408867
H   36.399723   68.314949   68.579948
H   98.338043   38.254875   51.495369
H    6.703606   30.728743   44.282310
H   99.903969   26.434265   50.012657
H   67.945839   19.914688   56.148140
H   17.419312   25.020243   18.868849
H   29.290455   85.638527   49.124035
H   42.662582   49.509945   58.852917
H   27.522404   69.492912   92.670273
H   14.592354   63.878017   78.632439
H   99.979813   73.884987   54.498188
H   85.246025   35.016228   27.042562
H   15.685515   66.594238   38.744347
H   46.408981   21.419027   31.183632
H   11.896660   11.533172    0.262524
H   71.361290   72.904350   85.341789
H   41.528553   53.577244   32.032417
H   56.266972    0.696042    0.505123
H   80.112541   89.714401   23.890135
H   36.711956   38.603245   47.574440
H   43.505253   19.827177   58.857502
H   30.208841   15.857666   40.187920
H   19.582888   25.000671   72.902565
H   64.739746   98.783058   54.585896
H   99.680130    3.739698    4.784662
H   94.211868   11.989653   75.060944
H   28.963966   74.657936    5.063295
H   87.636414   28.157127    0.263529
H   30.972687   60.570923   71.870743
H   24.968246   67.450317   48.933311
H   92.250015   54.573311   74.163605
H   80.597290   23.142502   72.008759
H    9.232407   71.966133   98.158302
H   78.472664   44.601395   13.130102
H   52.804176   19.631775   43.615433
H   69.646675   16.621204   76.695808
H   46.169273   66.199738   91.974228
H   44.722206   47.048080   90.870384
H   82.619835   12.709846   27.869640
H   40.839104   74.097801    0.645694
H    5.646348   60.295658   55.958805
H   31.420797   34.400581   94.400459
H   73.347519   92.783821   48.518269
H   18.833389   16.725863   72.541191
H   87.050217   29.377905   40.514576
H   37.857677   40.643486   61.208157
H   13.804065   81.821404    0.164680
H   56.222946   16.980396   42.937473
H   86.285667   51.991062   23.442039
H   74.219894   80.852486   76.467346
H   20.979549   34.619915   10.828970
H   80.039406   47.597427   43.631622
H   50.444347   15.870006   79.046356
H   85.665863   56.316380   16.299232
H   27.205023   16.607101   97.732155
H   39.416851   28.007385   77.615807
H    1.617191   65.835518   48.148006
H   64.261749   63.981789   90.375923
H   66.391304   65.442070   23.978920
H   20.714821   88.053818   42.658764
H   45.139408    1.294848   44.358715
H   16.465731   34.313774   43.355309
H   18.391365   43.091614   58.834038
H   97.100563   44.532242   61.608570
H   47.670933    3.508696   27.943172
H   36.541092   75.354973   40.796974
H   21.644686   97.292747    7.513222
H    8.759734   20.631104   47.779663
H   84.131096   39.074566    1.829630
H   71.286819   65.451164   47.988022
