100
TIME:    5.581, STEP:  5581
H   39.901772   10.215852   94.036453
H   46.341042    7.288995   30.005016
H   75.692123   75.423630   57.834057
H   82.413361    2.712246   34.249039
H   45.182541   20.099184   14.381699
H   41.476109   95.161781   31.451181
H   60.468464   38.193790   26.894548
H   81.230698   71.428604   95.764473
H   16.436302   49.703033   48.783440
H   22.326128   96.518257   26.235449
H   81.124008   90.806366    2.159704
H   42.830612    3.437448   95.667854
H   87.931778   24.096630   70.465508
H   78.743279   87.873665   81.956764
H   48.384666   71.510117   82.499207
H   77.123672   23.594498   69.769257
H   75.316261   51.109631   81.448792
H   20.413710   23.266087    6.059935
H   32.194370   12.481936   57.389339
H   42.154282   87.294716   96.313087
H   33.092262    0.610399    5.766788
H   97.436249   51.492844   44.004562
H   11.228955   49.232307   72.671173
H    0.502228    3.593233   92.579376
H   29.974857   43.559036   77.756813
H   21.104975   61.672539   65.604691
H   80.823410   10.480684   10.701199
H   61.632244   16.941902   51.252502
H   32.524727   55.443851   93.355957
H   14.993896   52.710045   27.061745
H   35.702515   22.514881   67.827980
H   18.144810   98.316940   82.602943
H   63.476620   60.149712    0.577508
H   13.911784   62.257378   36.631721
H   42.043396   37.039383   64.570633
H   57.784290   22.556660    1.880027
H   15.089868    0.146128   48.226238
H   33.319347   56.821064   16.277828
H    9.495355   59.816216    3.472257
H   37.525715   89.708656   77.136497
H   53.829651   47.679375   73.831642
H   30.031921   62.337776   64.994881
H   59.313259   96.967545    4.596076
H   22.978352    6.319811   26.416857
H   72.544548   11.695363   33.692120
H    6.083365   69.365860    5.834605
H   85.336227   28.352238   79.038063
H   56.537472   52.852463   13.898536
H   28.168480   70.230591   21.845142
H   42.928135   15.677740   93.322311
H   43.118824   30.834333   12.259749
H   76.358849   45.864582    7.678731
H   24.638439   54.369263   78.733940
H   47.446976   16.142197   78.090843
H   96.426994   47.697491   47.817623
H    0.546845    6.663053    2.636398
H   50.062111   28.509560   86.786919
H   10.483031   49.831261   69.801498
H   30.438353   74.579933   83.027077
H   90.730743   56.763317    4.873665
H   11.754110   19.030022   79.256859
H    0.837238   75.994919   42.832352
H   52.955280   26.445902   50.764526
H   26.276447   72.165207   75.617050
H   53.843430   15.098553   15.303245
H   58.496300   64.825035   76.175606
H   39.794800   41.311771   36.513626
H   94.847771   36.721226   33.006672
H   35.058628   48.771263   10.201180
H   43.455452   28.849819   89.981140
H   44.811256   15.669531   95.199318
H   13.788492   66.302414   65.237778
H   43.100082   42.246468   18.650314
H    7.351490   96.197899   71.549553
H   31.254141   36.597095   24.475956
H   57.599304   65.263969   20.399324
H   73.674217   42.822300   89.750999
H   94.185852   85.792732   22.657030
H   29.142330   37.125568   79.950752
H   25.826134    4.995381   40.113037
H   20.083315   87.019669   13.552541
H   60.080170   80.664444   20.090200
H   70.886543    0.453388   61.450817
H   34.114006   89.737106   53.678173
H   80.580513   99.789116    6.737053
H   22.843533   14.052752   29.344925
H   39.897102   97.568611   89.667068
H   45.786827   58.477253   37.711449
H   71.504745   83.431343   82.545418
H   72.903931   79.658737   23.725199
H   52.420189   74.788589   51.322308
H   91.236382   15.224008   39.866699
H   43.206253   94.976662   50.591877
H   86.649879   51.765942    3.117440
H   60.099510   49.818272   44.330875
H   54.889313   75.344208   79.182922
H   19.608866   87.962975   16.220978
H   27.350721   63.756561   66.723930
H   42.847015   60.907795   77.570183
H   85.868454   35.417171   60.106136
