100
TIME:    8.702, STEP:  8702
H   28.840992   24.006338   91.179092
H   60.148209   76.413406   26.793533
H   29.350298   99.961227   21.191917
H   82.937210   74.127800   63.178055
H   17.221735   70.260925   29.757580
H   93.072998   91.780571   40.534203
H   96.898888   48.939453   70.960899
H   35.926254   41.435139    9.204412
H   39.716103   49.630890   52.328098
H   37.077553   41.332829   48.439217
H   90.816193   16.386124    1.529146
H   23.709702   59.876873   73.511299
H   88.851913   35.266518   60.325645
H   24.210157   78.253883   19.465786
H   86.300484   92.727303   32.421547
H   51.635010   50.620262   10.698635
H   24.344063   57.539249   65.565742
H   87.148819   71.399681   97.873123
H   80.801544   43.413769   21.817295
H   58.066242   21.017416    8.805170
H   47.887703   89.905426   21.057402
H   96.649559   55.636017   78.222610
H   69.557961   23.853243   83.375443
H   10.516264   40.929413   60.788960
H   18.351135   96.047440    0.805801
H    6.576130   69.568527   71.985840
H   11.695379   80.745804   72.630661
H   98.292725   62.619648   54.415962
H    0.387069   38.605221   45.823326
H   34.665611   75.464828   75.172760
H   58.535877    2.381407   20.904533
H   15.206739   12.086334   93.676369
H   83.314224   31.802113   81.741837
H   45.782700   76.236359    5.150621
H   64.386971    0.806521   54.490353
H   29.087152   67.010284   92.068794
H   14.434369   85.848396   94.149010
H    4.323431   99.699348   36.516922
H   77.758598   91.816612    1.024331
H   43.562157   97.530800   22.689455
H   40.531021   54.767159   47.359829
H   66.856720   75.728058   24.213791
H   86.176605   15.688488   30.027691
H   23.692356   58.709915   31.569859
H    1.822196   88.561607    0.764375
H   65.796715   28.888756   18.514143
H    9.725419   98.081856    8.998058
H   56.718746   84.997772    7.007849
H   19.399368   11.751160   97.346741
H    8.438856   63.183445   75.089531
H   42.904072   29.521912   45.160553
H   28.046545   56.258610    2.803765
H   89.372139   72.465881   97.473587
H   75.171387   65.227859   15.811526
H   47.928963   21.206282   74.357971
H    4.434090    3.380064   96.390167
H   47.920135   38.454079   83.620003
H   78.087097   55.090828   89.410789
H   76.585289    6.458692   43.433411
H   84.776527   96.652023   16.105003
H    8.629097   73.886841   35.919476
H   90.066917   46.945084    1.615879
H   64.840790   13.473920   36.748199
H   40.590664   89.166504   90.879166
H   77.721390   65.830780    5.947945
H   66.771309    9.671195   60.714512
H   89.390396   49.211758   87.194199
H   79.259018   15.213979   82.208527
H   90.608032   24.516106   14.457705
H    6.758043   85.723282   83.386810
H   45.700977    3.315356   57.767891
H   56.677925   62.659569   93.899338
H   39.604904   87.874443   38.631054
H   38.643215   98.670815   86.110695
H   81.655548   41.128452   61.093128
H   31.377985   65.290886   10.395646
H   57.110184   72.620850   45.074402
H   40.811588   81.723045   95.026184
H   78.805214   27.958202   14.770544
H   72.771202   34.980766   71.236168
H   81.171425   19.308542    0.089601
H   94.287582    0.905149   58.993782
H   68.296227   52.646397   58.678432
H   48.832390   56.808327   68.623222
H   28.615829    4.559111    4.192383
H   51.016979   28.692039   46.076569
H   48.341755   70.645866   38.488197
H   95.981133    8.731226    5.351648
H   36.277103    9.659174   57.019661
H   96.964706   51.253754   35.292656
H   80.144371   43.312786   17.232445
H   22.158777   49.952759   99.337761
H   43.268406   88.619072   91.943604
H   88.280014   41.113148   13.560953
H    6.137409   70.258224   16.049288
H   12.671157   52.099182   17.979561
H   71.878563   67.068687   36.728966
H   21.480440   17.035664    4.187273
H   94.169975   74.379539   16.153301
H   79.725601   55.324467   59.449696
