100
TIME:    0.350, STEP:   350
H   93.653725   89.924599   98.825577
H   91.534309   23.721169    0.078459
H   85.777924   99.084648   19.230293
H   81.535355   18.230162   20.978224
H   92.036133    0.811567   56.215141
H   22.588974    0.832719   13.406919
H   34.627254   84.971306   17.823229
H   92.376984   18.881832   76.058693
H   45.024330   52.642349   78.056435
H   65.275642   21.411652   21.395044
H   67.698883   80.325607    6.036057
H   42.482693   41.234261   68.015678
H   20.999226   40.531998   90.341850
H   37.751942    3.998137   83.875221
H   84.759590   38.759529   33.947903
H   87.450958   81.124031    3.986760
H   95.927086    5.143092    5.221761
H    8.623919   77.680084   87.412399
H   50.714355   93.035248   81.801788
H   83.175209   98.193542   40.065727
H   43.507050   21.373558   47.742676
H   95.907997   44.561897   89.453621
H   81.071022   91.775688   22.336403
H   86.522720   40.879459   81.081100
H   17.065508   58.416889   39.143021
H   45.054142   17.180637   56.367348
H   31.897516   27.927547    6.911496
H    3.009518   72.776001   78.344193
H   18.781723   80.846855   40.627045
H   14.414340   82.177231   11.212784
H   29.869753   53.428749   81.715874
H   87.856659   42.840797   66.862831
H   95.010925   42.874214   29.327719
H   92.890205   41.647217   57.006157
H   72.072029   32.462967   46.040367
H    2.985885   11.979937   19.440031
H   13.368909   91.717628   36.043835
H   49.523102   52.548229   47.139248
H   34.985386   73.036522    8.580363
H   30.227676   79.417732   65.572502
H   11.323673   68.188362   50.586033
H    0.165157   27.565531   19.243582
H   14.255977   65.598785   26.754307
H   57.009415   18.637205   14.953064
H   26.295898   18.082554   86.057678
H   73.481377   69.783745   84.690819
H   39.775745   44.621967   30.613958
H   56.258106   98.986526   90.233978
H   75.259392    3.463005   30.511923
H   33.230404   36.076618   59.184258
H   43.517918   35.853691   57.107227
H   22.142000   31.261223   51.085976
H   16.139330   24.038147   82.543007
H   68.582245    1.491328   47.260578
H   12.895529   89.187653    3.376055
H   94.004166   12.164110   80.711975
H   18.440788   79.447762   89.275276
H   99.997253   43.833611    4.539484
H   17.881088   53.557159   84.614059
H   35.922028   54.690880   53.654747
H   81.778763   62.292503   87.107025
H   86.488953   24.687607   79.518982
H   97.972633   83.285927    9.546664
H   67.074348   43.698395   17.637503
H   46.214684   32.889957   28.155676
H   79.844368   24.873585   66.880592
H   59.487572   60.460835   83.959946
H   56.188911   37.554550   82.934624
H   74.347191   24.637550   38.281368
H   37.476601   65.749168    0.994767
H   10.917997   71.590538   57.949711
H   45.107670   39.909767   82.247322
H   84.170853    0.995518   52.774906
H   22.487183   27.230677   82.407066
H   79.046066   29.141706   27.930630
H   33.932858   30.003912   72.378189
H   98.732300   96.208611   97.226501
H   48.423965   27.834759   33.769428
H   78.329643   52.476620   21.591080
H   82.360825   89.892616   90.768433
H   17.731030   32.902569    0.907711
H   67.584846   46.513321   57.513504
H   39.941433   13.099265   63.235626
H   74.247284   42.111546   31.461525
H   35.288071   26.990967   13.823785
H   43.237820   21.909920   66.088310
H   90.530418   77.905067   40.232510
H   61.589478   77.272224   92.100868
H   62.946480   74.684837   25.337219
H   35.391273   94.885208   36.724041
H   38.346012   92.330811   40.853100
H    4.183157   21.829336   40.192909
H    7.740905   38.118149   45.991936
H   81.056801   34.462463   50.416691
H   50.540775   18.378384   24.129169
H   22.830185   81.910271   49.371040
H   34.820641   87.766289   17.060219
H    8.150241   19.217712   50.435471
H   92.038994   38.359005   15.734379
H   60.977673   69.714134   63.976059
