100
TIME:    3.859, STEP:  3859
H   56.353668   68.131378   95.612991
H   93.924416   13.972860   21.424208
H   46.087433   51.535683   78.044029
H   82.124329   73.659172   28.637705
H   60.606339   82.073372   61.071136
H   68.183235   97.027351   60.916565
H   50.719257   21.915379   92.231758
H   16.576508   22.454777   53.874104
H   58.766350   15.266403   57.177753
H   69.384438   71.792885   58.806206
H   41.300247   21.517521   68.030235
H    8.551888   17.122110   18.241163
H   97.791962   28.232681   41.575691
H   64.005836   93.181343   50.912479
H   27.441555   25.325741   65.275581
H   46.362869   74.206779   12.710394
H   13.789414   37.213299   24.688345
H   83.603355    7.037410   65.758972
H    5.373723   40.243805   66.667770
H   88.550865   23.866095   79.071312
H   35.278183   72.042297   52.501694
H   32.346436   49.206863   90.648804
H   34.220818   63.237221   21.939850
H   60.498589   82.964325   20.469913
H   91.564728   80.121643   65.039406
H   28.961916   12.624906   27.466833
H   29.312601   82.063614   76.539406
H    6.931104   36.564774   94.328575
H   95.080627   99.210983   74.755440
H   48.964020   95.329124   90.168365
H   67.933098   68.098686    4.067146
H    9.416808   45.890266   42.017082
H   42.180355   86.139809   45.446152
H   41.153915   20.068306    9.178062
H   84.846405   67.209282   59.713120
H    8.087011   87.630219    7.366311
H   49.926918   63.210922   12.539319
H    4.493739   88.328545   94.761040
H   82.183319   97.337822   70.346535
H   99.719154   50.917084   41.652493
H   71.516541   88.595886   33.262066
H   84.796188   85.052322   84.100677
H   44.480663   86.641220   80.212914
H   32.935165   77.445129   58.046143
H   21.916338   79.634247   86.335510
H   28.301258   36.521320   98.836861
H   71.883102   34.704002   62.509506
H   56.445507   35.116409    7.350939
H   77.831467   12.847786   90.536743
H    6.812274   89.473076   13.761494
H   43.250202   97.081566   94.105499
H   92.673462    5.652525   20.725368
H   88.921989   44.384521   78.745338
H   87.327934   44.243988    2.104292
H   33.534409   96.780945   33.168957
H   98.394699    8.474859   61.257339
H   40.895176   78.196785   23.010580
H   38.706779   12.452545   14.155895
H   94.628532    1.820304   15.225212
H    4.365539   24.403463   53.851448
H    3.128923   99.111839   13.518475
H   61.951164   92.023056   20.746140
H   36.047665   43.952202   68.847252
H    8.029638   62.786507   22.367687
H   85.493050   52.632679   54.941105
H   64.280678   50.430458   74.358002
H   77.953537   81.777435   53.375103
H   13.798393   38.238113   50.685116
H   49.235275   72.503204   18.202168
H    8.570135   42.239372   93.607178
H   99.490852   32.833946   15.856487
H   55.774185   23.452621   39.159664
H   55.377655   27.424488   62.806519
H   45.260632    5.173800   73.865532
H   48.228580   34.140324   93.935951
H   16.885210   54.899391   36.267918
H   17.326788   92.074020   59.297535
H   13.283168   98.389519   27.557795
H   46.564903   42.183628   60.741035
H   10.272642   98.783821   88.464989
H   86.391312   69.204788   10.632537
H   30.869972   69.429764   64.090332
H   61.958042   71.671417   97.450684
H   15.643633   42.382271   10.957421
H   64.428070    7.501011   73.665680
H   62.480328   50.803101    9.763928
H   24.888617   22.772194    7.555379
H   18.073156   96.333549   55.610687
H   35.769882   79.309456   96.629158
H   25.150843   50.507217   62.164955
H   81.948761   81.806007   14.956826
H   63.823334   85.720268    7.057715
H   32.822777   43.306801   17.426920
H   20.214451   47.310127   87.010994
H   89.869804    4.063141    4.763356
H   12.659209   43.343086   68.126534
H   56.292969   89.140846   15.254353
H   21.031431   49.094757   94.287071
H   24.879387   53.484928   21.804939
H   78.907829   79.604286   25.989992
