100
TIME:    8.885, STEP:  8885
H   16.465958    7.224787   91.011551
H   55.094040   86.329071   38.332638
H   32.495892   13.126525   19.043896
H   82.967926   66.588432   53.146507
H   15.581923   84.929184   24.796257
H   90.235962   91.582314   58.658005
H   87.307137   61.297035   85.271736
H   21.542816   57.266415   92.402214
H   35.217613   32.036240   40.808224
H   32.079231   43.960438   55.604408
H   73.793976   23.748875   83.901039
H   16.724617   69.049767   60.484947
H   77.182648   24.190628   42.140411
H   15.149619   77.689827   33.392673
H   88.523201   76.380836   23.621429
H   44.277145   34.614464   95.507874
H    9.628182   69.643379   82.224953
H   91.063705   62.494850   91.528885
H   83.652542   51.091358   31.457912
H   53.136333   17.131151   21.264673
H   37.028221   71.688080   16.090494
H   14.193948   55.878952   62.638458
H   67.114647   22.365614   78.139771
H   93.513138   43.118622   47.197155
H   11.806321   81.535553    2.156653
H    5.712942   64.173691   54.764614
H   95.915230   73.139420   76.260727
H   82.850983   71.161469   60.465607
H    4.366430   55.208584   37.172600
H   41.682808   70.935623   89.720947
H   65.738426   18.791161    6.426155
H   26.761494    7.030454   76.735130
H   96.203751   18.413452   98.227921
H   53.514740   59.465454   97.441307
H   59.832634   86.950844   65.624680
H   44.995090   81.343460   91.493568
H   31.986435   79.146736    8.568561
H   96.759499   96.351311   49.430183
H   70.034935   87.829124   83.290100
H   26.326094   80.399681   37.087799
H   28.024271   61.045776   51.671230
H   51.434525   76.445694   33.556210
H   87.751495   16.786484   43.245319
H   12.007732   61.782906   49.461895
H   85.947739   81.343361   16.424879
H   63.434715   32.378582   19.257608
H   11.156154    8.034414   10.755499
H   56.729916   86.882614   18.330585
H   24.748131   96.595253   90.047516
H   12.280094   65.969810   62.294758
H   42.891506   11.853962   47.090073
H   36.940517   39.276882   90.790932
H   93.166954   73.526978   86.845871
H   70.932587   62.242004   23.886330
H   33.358437   37.243721   75.913315
H    4.662016    3.187566   90.160416
H   59.520988   33.173729    1.024788
H   64.460388   37.808922   84.697289
H   91.018990   14.191464   29.383791
H   72.699577   10.718114   10.900047
H   20.173182   65.375732   21.651920
H   83.571892   45.241745   93.336342
H   77.263992    0.986140   24.199341
H   53.157673   90.163376   85.911560
H   84.984314   51.214352   22.990221
H   55.529274    0.574035   71.534904
H   74.708176   55.537846   96.029221
H   66.618011   25.680435   90.956985
H   99.727875   11.366890    2.980057
H   10.474730   94.915726   82.998672
H   39.888683   90.863976   55.573097
H   41.608963   56.583397    7.313335
H   27.673157   78.821617   33.938496
H   34.615238   87.088112   75.237251
H   90.471024   41.397915   74.968353
H   35.704742   77.018791   98.082138
H   73.730301   56.781956   48.320518
H   49.407864   69.757790    5.133899
H   87.581596   27.420673   16.812944
H   63.796562   25.011557   55.470512
H   84.754021   21.201761   11.027589
H    8.019894    2.093123   43.684677
H   79.870552   55.706821   76.105965
H   61.421738   72.467873   51.909176
H   19.705414   93.110886   86.452621
H   46.804707   35.414299   58.784592
H   60.563908   57.340279   47.214317
H   98.924278   94.087868    3.454266
H   40.074711   99.470222   55.522957
H   80.785782   43.724159   41.833755
H   87.633476   53.193546   21.097069
H   35.698925   63.716293    2.824364
H   54.999104   94.108849    6.095271
H    5.966522   52.215565   25.899755
H    2.973144   53.866215   20.253881
H   27.786194   44.872559    8.527151
H   57.352715   77.570747   26.204182
H   21.127207   26.090584    0.513227
H   85.452232   75.169777    0.824668
H   91.093292   50.629116   41.820141
