100
TIME:    3.605, STEP:  3605
H   73.530914   91.424530   95.845535
H    0.989917    0.201278    5.402250
H   41.721420   33.261604   81.024467
H   82.081696   84.123650   42.561039
H   62.881393   61.714153   67.958313
H   72.120979   97.302528   35.761124
H   64.030464    4.763596   72.368629
H   36.540405    0.481033   77.195229
H   65.010155   39.687408   73.165977
H   76.325874   68.145821   48.859138
H   64.926712   11.297438   92.497734
H   18.247032    4.390771   36.320717
H   13.948747   43.599960   66.820488
H   76.582588   93.964241   31.582264
H   24.351627   48.013992   77.484138
H   56.575424   96.422478   33.795265
H   34.214577   20.413937    1.565724
H   78.177330   19.389702   74.564636
H    1.417803   29.587481   53.286419
H   95.395409   29.260145   61.777794
H   50.350906   97.327576   59.394684
H    7.995209   48.869675   12.279190
H   37.612083   65.302986   29.207817
H   84.097923   79.917999   39.335041
H    0.649405    0.263855   63.163551
H   30.127542   20.193026   51.273705
H   51.216183   92.621109   71.500954
H   28.362730   24.708908   85.933739
H   89.557709   76.165878   86.762459
H   39.224304    1.615670   69.975800
H   57.936405   45.322598   24.162819
H   93.379219   52.907280   65.531151
H   24.288454    4.723754   22.563826
H   30.421871   43.345955   19.877991
H   91.159973   86.409660   44.247009
H   85.999550   67.677948    8.243020
H   25.565746   72.512680   92.525322
H   14.991645   92.975548   76.835777
H   92.903595    2.871862   94.961311
H   23.643066   74.695770   21.667780
H   88.875946   79.879364   27.277937
H    7.624317   73.653793   72.167297
H   42.292812   85.118057   61.865421
H   49.155106   73.189575   33.211998
H   43.948383   89.656891   64.600403
H   31.578190   31.676655   97.805916
H   69.898727   20.890114   60.069733
H   56.431942   32.500290   91.634926
H   70.405563   33.883324    0.667997
H    1.485080   85.608971   31.525913
H   43.269581   21.604156   91.427368
H   80.329254   29.221848   37.400707
H   83.654869   42.911743   93.496376
H   93.211296   48.389084   90.895844
H   53.757980   74.518738   31.008680
H   98.076889    8.742285   69.904099
H   24.793444   85.525795   98.852837
H   57.620354   36.440170   20.698963
H   74.594872   91.088287   34.725124
H   21.126480    4.879462   61.075813
H   87.106544   10.923728   33.321590
H   70.966118   94.387253   32.239624
H   18.803335   61.284477   86.264793
H   90.588310   61.404808   29.264553
H   75.412270   72.919350   31.287481
H   79.884377   63.057594   59.339539
H   98.332138   72.995026   41.112286
H   31.343895   23.711317   38.542446
H   36.575195   90.754028   34.133366
H    3.424145   29.463213   94.142029
H    7.556705   50.115837   18.903782
H   76.717880   31.882339   20.562557
H   71.938660   39.987675   69.318108
H   50.853313   21.247475   88.957634
H   35.983204   33.777943   74.681313
H   10.880176   38.619377   53.357960
H   94.265388   14.088818   54.805561
H    1.349784   14.997999   13.529667
H   34.385414   42.929707   57.905937
H   22.729469   12.617222   10.347218
H   81.422623   66.577042   95.451660
H   11.811164   67.770950   85.329346
H   45.887318   67.431366   73.258362
H   98.168823   20.646656   34.155724
H   76.795532   23.389317   98.288208
H   68.325439   41.472275   92.125229
H    7.924536   41.240059   95.443527
H   13.985228   16.669113   58.251999
H   30.498611   93.452003   98.706551
H   47.608479   60.958130   53.086052
H   71.554047   68.089790    9.592813
H   45.027969   66.620659    2.217607
H   16.541744   35.685173   97.784630
H   95.664223   31.902161   69.884132
H   94.261009   26.815586   98.926903
H   91.679779   53.373482   81.245888
H   76.454529   74.564217   29.862932
H   20.099318   46.932098   98.352715
H   36.979424   52.390034   43.080772
H   63.129833   86.123268   50.459190
