100
TIME:    6.529, STEP:  6529
H   75.792801   23.279867   93.168533
H   20.160427   58.662327   89.779762
H   91.994553   43.625999   46.702984
H   82.572479   63.655609   82.286499
H   36.691391   96.085571   88.677872
H   26.772099   94.134743   25.334663
H   10.785926    2.206015    1.029389
H    6.719772   53.442616    8.722125
H   93.132591   58.556671   89.109489
H   96.429207   10.130981   63.354496
H   92.943359   28.950842   10.843529
H    6.645584   50.955585   28.187286
H   27.437759   66.768990   76.267265
H   31.803291   84.951668   54.100773
H   59.907234   86.830376   36.922794
H   39.007523   40.678871   91.076660
H   99.083656   13.814149   67.748970
H   40.686871   77.137985   73.195351
H   46.956242   52.254364    7.336210
H   16.615738   67.158974   60.857292
H   76.836609    6.234114   80.033791
H   88.321930   52.751328   63.273621
H   98.570641   41.522285   45.548676
H   12.419365   14.934053   22.172812
H   96.070503   68.378510   84.758034
H   16.783457   33.645958   76.458824
H   99.075554   71.075821   29.512854
H   81.643448   61.191353   82.587357
H   53.137825   41.453686   48.542358
H   51.343632   29.247276    2.425792
H   73.014091    7.524097   92.825310
H   78.002350   72.120224   94.841850
H   30.250717   90.790016   85.980835
H   53.967827   75.378860   96.695694
H   18.467545   65.333138   22.280352
H   40.192150   96.807671   98.899208
H    6.015429   65.429321   22.924841
H   94.137688   39.469898   83.174828
H   69.482819   39.159721   11.603853
H   48.234264    0.959668   51.723217
H   89.041107   80.208275   96.166115
H   49.985458   67.206619   13.277413
H   67.475861    2.653398   73.069878
H   62.443485   22.231771   19.106997
H   90.313362   74.289749   14.814364
H   93.847832   87.447525    9.685999
H   92.742477   79.906937   88.136757
H   56.588100   62.616562   72.555450
H   55.876823   91.718605   84.029953
H   62.817081   30.108515   27.023878
H   43.053280   39.311020   22.252354
H   22.433334   57.897720   45.448067
H   44.304058   59.866089   23.674135
H   25.495834    0.673314   19.922874
H   20.946362   30.775002   55.882046
H    1.727621    5.665849   70.364227
H   10.162965    1.154683   76.949638
H   39.892487   60.304100   45.384018
H    5.206023   14.636418   10.251848
H   28.172325   29.628773   77.910301
H   71.554893   74.941910    5.344492
H   67.190956   67.171066   99.935959
H   17.313841   61.755898   85.757324
H   91.374313   77.329330   49.879253
H   91.469711   39.383831    3.585998
H    0.260816   17.696983   32.229279
H   63.734634   74.085205   82.281937
H   29.363213   90.937294   78.326553
H   82.306831   80.654037   50.746098
H   62.658180   76.532646   87.984924
H   14.706900   51.168182   83.829567
H   35.621357   34.840317   34.644409
H   81.287933   95.356384   94.343079
H   86.480476   36.199055   15.222628
H   76.959465   37.949604   96.340103
H   80.008171   26.020027   56.609573
H   59.755459   60.700169    6.534381
H   38.724621   23.804571   75.012779
H   74.601326   34.340992   90.524910
H   79.336929   53.354317   58.441978
H   38.635101   96.827164   70.212143
H   31.228216   86.812347   40.788273
H   30.848946   16.305944   51.732994
H   99.334877   70.859764   67.092918
H   34.421638   40.492851   14.838936
H    1.022869   48.876175   95.176651
H    3.211884   28.641304   34.871361
H   61.033287   82.617004   27.882256
H   91.177597   30.647440   74.792000
H   89.087326   40.655872   57.611122
H   91.216209   25.979458   71.342331
H   61.378780   86.522797   57.926666
H    3.975048   23.421406   23.902170
H   78.269264    9.279838   67.039444
H   43.710289   64.902603   66.115662
H   33.190247   37.907928   30.217773
H   44.360771   42.365494   61.700607
H   25.674845    9.514493   47.811050
H   97.686729   64.996010   98.164162
H   44.751789   11.090607   68.781990
