100
TIME:    8.372, STEP:  8372
H   51.157707   54.268761   91.481216
H   69.262283   58.531933    5.985969
H   23.677919   76.219315   25.065399
H   82.881821   87.723381   81.265327
H   20.178774   43.809971   38.705170
H   98.188965   92.138084    7.852866
H   14.194085   26.655291   45.154469
H   61.863602   12.886867   39.504791
H   47.828133   81.358948   73.100540
H   46.090919   36.594517   35.518379
H   21.511978    3.108315   33.316368
H   36.305756   43.335583   97.001442
H    9.895058   55.239433   93.120926
H   40.549431   79.271034   94.352318
H   82.292305   22.204514   48.290611
H   64.903290   79.483177   38.092072
H   50.880623   35.713306   35.524544
H   80.094040   87.457573    9.312193
H   75.660400   29.568935    4.432509
H   66.957077   28.025434   86.337318
H   67.470375   22.758068   30.014120
H   65.012138   55.197937    6.325123
H   73.963936   26.535852   92.816818
H   41.178452   36.981659   85.296585
H   30.152855   22.218559   98.369057
H    8.132698   79.296921    3.039303
H   40.152046   94.462234   66.084641
H   26.136942   47.216358   43.506767
H   93.211601    8.665558   61.422997
H   22.012642   83.632248   48.938324
H   45.547062   72.788490   47.013084
H   94.370598   21.203197   24.226067
H   60.070393   55.946846   52.012833
H   31.839661    6.478889   19.052168
H   72.599709   25.792107   34.411694
H    0.401734   41.161346   93.106087
H   82.782494   97.933357   68.146202
H   17.962532    5.738691   13.230712
H   91.686516   99.007164   33.002953
H   74.644028   28.424463   96.725830
H   63.084579   43.445061   39.585171
H   94.667236   74.433960    7.366613
H   83.336639   13.708946    6.192362
H   44.762989   53.168457   99.305450
H   30.447121    1.578408   72.525810
H   70.056664   22.595764   17.173468
H    7.145301   80.135689    5.829119
H   56.698605   81.598877   86.589485
H    9.754059   39.080795   10.510742
H    1.512034   58.160633   98.161736
H   42.926731   61.380989   41.681091
H   12.007692   86.879517   24.466999
H   82.529030   70.552429   16.639410
H   82.815125   70.610703    1.250403
H   74.203682   92.286713   71.553253
H    4.023075    3.727192    7.624161
H   27.000565   47.976021   52.234352
H    2.659778   86.254921   97.910545
H   50.557308   92.514946   68.768555
H    6.554063   71.288712   25.490990
H   87.812485   89.234741   61.647854
H    1.779276   50.016678   16.547684
H   42.435871   35.993195   59.377289
H   17.929626   87.368866   99.837143
H   64.624313   92.186066   75.216721
H   87.043831   26.076286   41.202335
H   15.867212   37.804058   71.262192
H    2.054325   96.340385   66.432617
H   74.162415   48.227806   35.155670
H    0.055703   69.146744   84.086731
H   56.182163   25.769760   61.725716
H   83.853302   73.616600   69.709274
H   61.121170    4.198813   47.093044
H   45.906780   19.556366    5.718265
H   65.758789   40.642536   36.072224
H   23.575632   44.139839   32.600311
H   27.139275    1.181737   39.220749
H   25.309565    3.299740   76.798035
H   62.979111   28.927517   11.087778
H   88.954979   52.957146   99.666039
H   74.711006   15.894540   80.365936
H   69.523483   98.764175   86.602425
H   47.422493   47.127598   27.249981
H   26.129963   28.569647   98.765129
H   44.683792   25.202084   36.181419
H   58.612881   16.570572   23.160461
H   26.301805   94.639549   22.752571
H   90.673820   35.138176    8.773392
H   29.428486   28.032309   59.718636
H   26.141272   64.831558   23.496325
H   66.639427   25.495022   10.263450
H   97.742119   25.133617   93.048546
H   22.114689   78.719475   66.424194
H   56.386391   21.092396   91.309929
H   11.843674   99.816025    8.466608
H   85.414444   65.130798   35.024391
H   98.072716   48.130547   55.707390
H   22.117418    0.707235   10.812601
H    9.890252   72.954521   43.795132
H   59.227070   63.791492   91.238541
