100
TIME:    5.965, STEP:  5965
H   13.933983   75.001305   93.684891
H   35.735573   28.098272   54.218761
H   82.295639    3.050438   53.325268
H   82.477814   86.891693   13.200444
H   41.743088   50.878479    3.970322
H   35.520054   94.745766   69.481010
H   40.344440   64.124443   56.923847
H   51.049057    4.650928   60.508320
H    6.996849   12.783048   24.611036
H   11.835508    2.032096   41.271610
H   45.405258    6.257354   65.169563
H   28.173386   22.685017   68.333870
H   63.427872    0.874466   32.309258
H   59.729607   86.690071   11.178562
H   53.054588   37.209335   64.042175
H   61.684219   90.008217   37.894257
H   44.437355   76.508537   16.405828
H   28.625624    4.582005   92.748085
H   38.173862   28.592287   77.620804
H   31.809555   79.138466   22.457514
H   10.305153   62.383663   95.343788
H   34.250702   52.002609   11.303391
H    6.101406   46.109261   61.684845
H   64.824471    8.186983   64.061798
H   16.241947   13.104935   80.592751
H   19.354486   50.320000   29.496059
H   47.710640   94.518448   18.320807
H   29.232704   34.865730   63.946838
H   40.874336   90.283691   75.203613
H   29.717091   43.206139   57.588852
H   50.816772   56.947903   37.447121
H   42.390903   87.705612   47.054115
H   90.523552   32.054008   35.171265
H   30.137764   27.065971   20.455034
H   32.498474    8.011030   87.955399
H   91.165146   52.633293    0.672367
H   51.919640   86.083618   78.484047
H   17.448910   49.792744   43.374508
H   93.286896   51.449028   66.259483
H    1.357495   53.760555    7.347795
H   27.585758   60.854179   82.878517
H   97.516159   64.994888   84.482994
H   62.620876   99.270279   32.332619
H   98.459229   12.765219   63.961021
H   39.236179   96.544754   66.551498
H    1.128075   76.690079    7.394663
H   88.336227   49.235306   82.723610
H   56.557980   56.807541   37.658298
H   39.392113   38.428261    6.526818
H   50.981846   21.522467   66.462936
H   43.092007   93.760910   16.307789
H   95.020958   10.231689   82.470894
H   32.604259   56.595825   56.432163
H   38.555374    9.876311   95.036156
H   65.852776   81.349304   51.084225
H    1.025160    6.259122   89.564117
H   74.406136   17.429482   23.308708
H   81.889557   13.566843   59.910873
H   60.722534   90.804543   53.548561
H   65.388947   86.277710   93.951805
H   35.977863    1.172720   49.316891
H   87.208412   72.420700   25.456375
H   79.024879    0.241748   24.432495
H   52.646248   74.257004   65.193222
H   69.085617   84.429764   51.063694
H   34.906456   45.735191   98.880684
H    8.985111   54.586185   55.052689
H   68.322380   58.682163   51.364094
H   54.198277   21.179466   86.118195
H   51.233772   48.165009   89.172546
H   32.617897   89.542145   90.593849
H   82.125320   53.558273   93.351059
H   18.062157   23.253304    8.803635
H   98.898872   71.893211   48.733147
H   49.766895   37.144947   53.585709
H   66.677544   89.873344   94.561005
H    8.537925    9.539110   96.542015
H   12.226878   60.684921   43.865036
H   47.555416   35.997639   84.233955
H    6.996094   84.077583    7.031114
H   27.597963   90.992325   36.502613
H   88.902039   83.154678   87.968468
H   95.173653    6.874792   98.019379
H   60.530998   22.597137   18.606884
H   61.883247   75.771538   69.512558
H   14.004665   28.157734   56.010941
H   65.543587   69.648689    7.977743
H   51.962608   27.747965   33.730003
H   79.473495   62.050484   79.404793
H   38.952549   63.861835   37.451668
H   68.135033   95.524918   59.431683
H   19.648493   44.104034   47.182129
H   67.821487    6.497793   80.287186
H   23.761986   75.062813   29.009722
H   53.460838   15.420811   53.155094
H   86.606110   60.180145   59.348938
H   89.128960    9.999753   94.136459
H   26.763498   81.606232   59.132187
H   24.554047   62.563068   45.406380
H    9.721046   25.563675   23.112972
