100
TIME:    4.543, STEP:  4543
H   10.098068    5.405132   94.986771
H   75.008949   51.043327   64.557922
H   57.844727    0.746158   70.017967
H   82.239136   45.479240   91.145515
H   54.479813   36.898987   42.524567
H   57.576069   96.286324   28.654413
H   14.872135   68.103912   45.721523
H   62.815453   81.628967   91.070457
H   41.952324   49.502502   14.120890
H   50.691750   81.614113   85.588593
H   77.676239   49.039921    2.145109
H   82.447243   51.407692   69.553398
H   54.168869   86.865593   73.606689
H   30.137878   91.073067    2.963442
H   35.761284   64.228302   32.393978
H   18.860096   14.381792   55.932556
H   58.786110   82.454651   86.955559
H   98.217674   73.769753   42.042431
H   16.027142   68.939468    2.706408
H   70.119102    9.340384   25.641153
H   94.688667    3.946667   33.939468
H   97.922180   50.114883   32.399841
H   25.088432   57.674294    2.368752
H   96.947540   91.167816   69.671204
H   67.100372   25.876823   70.090919
H   25.836763   92.352554   63.214230
H   70.331734   53.631290   90.107521
H   49.216244   68.491592   16.938128
H    9.954158   61.268429   42.421577
H   75.192230   78.400291   44.543739
H   94.850151   29.435417   49.951241
H   52.604961   26.994057   78.695793
H   90.359962   36.094337    7.066273
H   70.054001   57.383881   80.362160
H   67.844513   15.504313    1.366536
H   67.552887   41.256199    5.145044
H   15.532160   38.162094   66.435959
H   76.220512   75.814568   43.027897
H   53.312611   82.433769    4.062135
H   35.293808   86.882851   95.467896
H   24.769569   12.066228   49.376812
H   23.322189   15.749759   16.235445
H   50.372356   90.742966   29.619848
H   89.258087   88.904968   24.925547
H   62.583019   52.646332   44.867695
H   19.476765   49.567585    1.615632
H   77.226852   71.901512   69.075569
H   56.482037   42.161392   49.673012
H   97.828781   56.197529   63.254250
H   21.157948   99.878777   65.919655
H   43.198017   31.046555    1.317240
H   25.913313   42.182972   75.823029
H    3.106812   48.350586   39.018787
H   71.484550   33.081604   32.285545
H   79.074371   56.726223   38.987591
H   99.250534    7.754928   37.972366
H   84.258179   58.460396   88.064476
H   87.774551   47.857552   96.537094
H   48.572762   30.722496   62.715714
H   59.226398   76.978622   34.396858
H   46.276886   67.299828   60.186722
H   37.674675   85.656479   89.797440
H   82.485069   97.276535   21.943321
H   55.000076   66.510818    3.795025
H   12.641110   98.001770   18.638952
H   22.261269   16.426674   14.800944
H   23.075304    5.426950   86.397812
H   66.549660   77.356033   83.384270
H   83.324814   23.355316   75.304291
H   22.427877   76.643066   92.166870
H   77.771431   86.293961    7.650415
H   99.376556    0.751445   89.239037
H   10.779062   93.591927   45.267120
H   30.200024   61.890865   33.223808
H   81.207039   35.116184   45.788540
H   33.057358   98.735924   90.243362
H   79.430313   32.789043   71.394035
H   45.418728   53.665714   65.334373
H   79.365654   40.174503   68.372719
H   76.727844   61.533779   29.537621
H   99.771561   76.281082   51.513119
H   82.192131   73.896805    6.894361
H    5.228406   83.094299   62.597256
H   62.699806    0.913054   48.483521
H   31.123495   64.718987    7.359515
H   46.736095   75.927727   57.262939
H   70.571419   73.039810   40.171371
H   29.081594   41.570549   48.497864
H   49.964218   41.224800   91.034920
H   64.677383   22.363815   86.618484
H    9.941001   18.741161   29.401651
H   14.433618   37.157249   20.091513
H   76.668663   63.831184   70.321701
H   86.325943   88.799347   33.130100
H   78.044670   42.795761   20.479820
H   69.154755   16.333614   32.797249
H    2.000739   28.393917   75.916748
H   23.541533   54.918610   83.338646
H   92.295197   56.433384   64.514198
H   21.394648   62.049816   60.099483
