100
TIME:    3.217, STEP:  3217
H   99.770172   27.005943   96.200760
H   11.783333   79.166046   80.927414
H   35.052078    5.348280   85.577263
H   82.016571    0.108772   63.830112
H   66.356674   30.614239   78.478882
H   78.136116   97.722878   97.335838
H   84.367073   78.565315   42.026527
H   67.036438   66.912338   12.819139
H   74.547935   76.991913   97.587669
H   86.929329   62.574715   33.664406
H    1.017530   95.685699   29.872080
H   33.056938   84.942383   63.939430
H   38.628998   67.074387    5.385761
H   95.794319   95.160164    2.054231
H   19.631580   82.672073   96.133430
H   72.175705   30.358612   66.002296
H   65.415138   94.750870   66.244553
H   69.888756   38.258049   88.015808
H   95.373482   13.309314   32.846203
H    5.849190   37.498890   35.360924
H   73.375381   35.955032   69.925797
H   70.797272   48.354599   45.320999
H   42.792442   68.458565   40.308960
H   20.147385   75.264557   68.152214
H   14.526071   31.035187   60.298073
H   31.908106   31.754107   87.641747
H   84.673553    8.749364   63.804348
H   61.099804    6.598373   73.110130
H   81.121124   40.963120    5.103547
H   24.347076   11.219312   39.130463
H   42.664707   10.530509   54.860146
H   68.880562   63.626183    1.450273
H   96.958099   33.110741   87.609718
H   14.026864   78.903938   36.223145
H    0.804404   15.739770   20.621613
H   52.260036   37.197071    9.581571
H   88.351143   86.721664   61.952328
H   31.027122    0.074153   49.455456
H    9.280845   11.324728   32.560638
H   60.187138   11.018157   91.141090
H   15.392710   66.564362   18.136824
H   42.495537   56.240547   53.938354
H   38.950741   82.791336   33.841160
H   73.932022   66.688965   95.275352
H   77.604149    4.966312   31.398710
H   36.583897   24.276142   96.231087
H   66.867477   99.788422   56.342834
H   56.411221   28.505308   67.627663
H   59.063347   66.016533   16.146124
H   93.349907   79.706322   58.662113
H   43.299183   59.063004   87.336365
H   61.472752   65.226608   62.873272
H   75.609032   40.661987   16.030537
H    2.197758   54.720963   73.774017
H   84.650681   40.513947   27.709532
H   97.591415    9.150793   83.112534
H    0.196630   96.721291   61.950920
H   86.511955   73.081589   30.694096
H   43.994209   74.694672   64.513618
H   46.729294   75.057877   72.111458
H   62.631569   28.967121   63.571926
H   84.736992   97.998703   49.796600
H   92.462349   87.760551   12.871140
H   63.946457   59.294182   39.799923
H   60.012516    3.907013   95.153938
H    3.719868   82.346291   36.397949
H   29.462990   59.580349   22.379347
H   58.145592    1.520228   19.993803
H   17.236176   18.633217   58.469212
H   95.562561    9.947832   94.959045
H   19.878052   76.514946   23.558704
H    8.711242   44.759232   92.155334
H   97.236572   59.178684   79.264397
H   59.396008   45.801727   12.012672
H   17.276503   33.224384   45.268711
H    1.707032   13.751780   79.465759
H   59.038532   47.718918   47.943806
H   83.120834   40.368923   92.102203
H   15.780515   44.069386   53.575157
H   41.757668   33.748768   43.773727
H   73.832657   62.563000   72.261414
H   82.699585   65.237015   17.773985
H   21.338339   60.954437   36.303165
H   71.473694   87.444427   69.592804
H   95.687561   47.660038   35.900276
H   77.253418   27.219383   65.181442
H   82.010872   69.450813   76.942245
H    7.740675   47.733505   62.286758
H   22.445374   15.055031    1.880501
H   81.912750   76.920120   39.217491
H   55.675507   47.139843    1.398906
H   16.317747   37.442184   94.823311
H   91.670639   24.042685   67.779991
H   58.163883    8.367050   43.724136
H    0.969009   61.571354   90.010765
H   59.632599   68.695503    1.286520
H    7.252307   52.297558   52.177101
H   18.675459   43.628510    4.561617
H   55.462944   50.717518   75.579811
H   39.030804   96.081398   87.835815
