100
TIME:    6.803, STEP:  6803
H   57.263016   98.153328   92.917679
H   12.594028   73.509483    7.055775
H   96.706436   63.338982   43.485775
H   82.618469   52.367157   67.268677
H   34.237198   18.047789   81.248398
H   22.522205   93.837898   52.470592
H   96.425537   20.708317   22.456614
H   85.183907   77.147430   83.565056
H   86.397148   32.212769   71.863243
H   88.945381   14.065739   74.082710
H   67.456543   39.975895   84.449898
H   96.187836   64.689865    8.684395
H    9.953201   50.198307   49.041191
H   18.237289   84.107124   74.951958
H   63.235237   62.355339   23.746662
H   27.990448   16.713905   68.332520
H   77.050270   31.936359   92.692268
H   46.546413   63.805069   63.696396
H   51.222858   63.749771   21.770809
H    9.234344   61.340107   79.512505
H   60.577057   78.957428   72.595955
H   14.590576   53.115067   39.939972
H   94.912346   39.293861   37.709473
H   86.961281   18.211885    1.823001
H   86.270454   46.648659   86.781593
H   15.530529   25.547688   50.690826
H   75.449242   59.686234   34.950123
H   58.523521   73.980751   91.643204
H   59.095619   66.313362   35.589905
H   61.850254   22.465843   24.207336
H   83.796654   32.094070   71.147301
H   95.302948   64.548599   69.476280
H   49.551785   70.742561   10.664922
H   65.544762   50.268326   85.152206
H   11.648149   44.587471   38.951721
H   64.010780   18.268848   98.037941
H   32.295540   55.395142   44.515049
H   82.811607   34.454899    2.511293
H   57.917324   33.189384   85.051300
H   22.427219   75.309738   73.281174
H   70.314819   89.611137    2.621262
H   26.894302   68.281113   27.265686
H   69.833893    4.297125   92.862297
H   44.948475   26.830770   45.896667
H   66.544899   63.478024   38.261662
H   90.310783   92.673660   10.799166
H   94.883102   94.807693   90.766548
H   56.602840   65.438675   89.509033
H   63.885353   69.024635   73.101059
H   68.569580   34.279446    7.865691
H   43.034466   12.857656   25.140316
H   35.752369   32.471527   27.461800
H   49.988003   61.454834    7.760553
H   19.151306   96.203674   32.013016
H   99.129471   54.787994   58.212902
H    2.068887    5.377627   61.036621
H   27.532724   93.248528    3.009288
H   19.490297   34.428459   38.326645
H   26.815308   26.215382   89.217522
H   10.091816   50.690098   70.117088
H   88.838768   62.198799   83.980453
H   57.466164   64.620712   87.539566
H   35.915966   43.058876   66.968323
H   10.189075   78.821915   42.439327
H    2.344532   17.499561   29.103125
H   83.428497    4.076042   48.430298
H   41.751419   83.559143   95.510330
H   10.436087    6.607700   91.425339
H   95.961678   60.966141   33.560474
H   68.209923   90.312920   87.407959
H    6.005847   32.525513   80.543373
H   13.032889   25.744591   54.708427
H   63.422913   81.803024   87.319153
H   80.447426   18.857944   98.943024
H   90.171135   38.340519   17.111618
H   86.484398   43.581577   38.173859
H   84.640228   36.983967   11.393721
H   51.597637    5.888303   90.143486
H   87.741920   33.536167   93.581154
H   65.899490   38.428474   34.836571
H   43.997116   99.661819   86.588760
H   51.787872   88.589233   17.865799
H   48.180901   20.888220   77.827026
H   18.185577   94.306297   42.067837
H   21.079649   23.353218   88.277901
H   94.717758   58.941711   14.204328
H   21.511782    8.719085   47.936699
H   65.439964   60.692005   25.041328
H   96.863632   15.392330   72.551033
H   64.863144   29.382053   67.405624
H    2.429443   40.774025   77.128708
H   81.652008    7.130230   63.146530
H   21.538746   31.643162   45.091011
H    4.750899   25.902918   85.514877
H   38.973320   40.358658   72.412109
H   55.821503   27.088213   16.065399
H   22.612139   58.089890   45.942764
H   25.145960   23.072132   42.311066
H   84.633934   66.179207   75.215157
H   61.770176    4.059511   42.386204
