100
TIME:    6.365, STEP:  6365
H   86.883621   38.319176   93.318680
H   24.689220   49.774906   79.439674
H   89.174301   31.826996   48.628613
H   82.544952   70.412201   91.275269
H   38.160324   82.940247   93.124710
H   29.315830   94.312416    9.093193
H   19.380997   91.132500   88.204369
H   19.609848   39.255024   23.780415
H   97.164024   74.324554   99.432060
H    0.908699    7.775886   56.933231
H    8.198227   22.351904   26.640816
H   12.905441   42.735065   39.860970
H   37.902969   76.686165   92.563164
H   39.923698   85.457161   41.619846
H   57.915291    1.479658   44.809238
H   45.601456   55.022865    4.690099
H   12.271739    2.967012   52.819405
H   37.179699   85.118271   78.880898
H   44.402500   45.373901   98.696243
H   21.033798   70.642372   49.691399
H   86.568604   22.561275   84.485634
H   72.599091   52.533615   77.239746
H    0.760352   42.856087   50.240753
H   27.657356   12.972139   34.352940
H    1.936109   81.383698   83.546852
H   17.531061   38.494438   91.881371
H   13.217453   77.892471   26.258429
H   95.481949   53.536385   77.167068
H   49.571846   26.574398   56.294922
H   45.054996   33.306236   89.388168
H   66.560295   92.817665    5.800419
H   67.647247   76.652145   10.024086
H   18.698822    2.789107   71.206421
H   47.038567   90.408524    3.604658
H   22.549026   77.750252   12.301982
H   25.936007   83.962639   99.414711
H   90.285378   71.435181   10.002379
H    0.916678   42.471577   71.601036
H   76.404572   42.733208   27.496233
H   63.680584   16.313076   38.819378
H    0.249530   74.580284   92.302345
H   63.806442   66.563492    4.904928
H   66.064484    1.669561   61.223610
H   72.916016   19.479086    3.072187
H    4.539536   80.761063    0.780048
H   95.964897   84.319473    9.019724
H   91.461227   70.988235   86.562721
H   56.579342   60.927414   62.408054
H   51.083397    5.301398   90.571335
H   59.374973   27.611704   38.491043
H   43.064541   55.143967   20.523792
H   14.461243   73.115570   56.213570
H   40.901989   58.915161   33.199131
H   29.293289    3.349364   12.686439
H   34.004631   16.402855   54.486935
H    1.523359    5.838361   75.947174
H   99.766243    5.887065   61.351921
H   52.104401   75.791710   49.608139
H   92.271286    7.706220   22.841774
H   38.994133   17.022724   82.574852
H   61.209797   82.569351   18.130978
H   73.011635   68.697556    7.356751
H    6.179828   72.946815   97.003296
H   80.113327   76.435959   54.332348
H   84.960861   52.482861   88.313454
H   10.335049   25.849937   22.532316
H   76.892471   68.414673   74.364212
H   40.691765   81.558144   70.486404
H   74.133858   92.438034   61.032383
H   59.336189   68.284599   88.330261
H   19.915028   62.326569   85.796486
H   49.143299   40.283127   22.636932
H   91.980865    3.468758   98.547180
H   90.091499   46.577930   24.966509
H   69.051750   37.715626   83.907974
H   76.131889   15.509148   67.644501
H   44.860928   74.894310    3.625762
H   31.019604   34.528305   65.956444
H   66.736153   34.822712   88.695625
H   87.379776   62.288033   72.570763
H   35.425720   95.130508   60.410084
H   18.921835   85.748810   54.507908
H   20.475075   13.563546   36.114006
H   88.051369   56.826073   82.072533
H   42.406929   50.751610   30.736923
H    4.797645   42.851547   83.788040
H   92.258675   40.565437   27.051229
H   58.395714   95.739807   29.582664
H   87.774277   39.778755   76.133308
H    3.586689   47.403706   51.749153
H   84.504662   17.123943   67.878952
H   49.244442   74.188263   54.802368
H   93.462357   18.500355   11.219798
H   62.418926   99.330391   55.981155
H   46.545555   79.591934   62.346989
H   19.644531   44.384247   38.688538
H   57.378471   32.953812   71.132309
H   25.991404    1.399806   51.103012
H    5.499241   64.287819   11.901131
H   34.565601   15.299088   84.579903
