100
TIME:    2.365, STEP:  2365
H   57.386871    5.138822   96.980789
H   35.483513   32.970947   27.183401
H   20.407026   44.051239   95.574638
H   81.873566   35.213036   10.528889
H   73.987961   62.322697    1.580635
H   91.344612   98.645912   12.959412
H   29.021194   21.033302   75.398933
H   34.001961   93.204926   91.047264
H   95.491722   58.908295   51.219433
H   10.211775   50.341255    0.298808
H   80.268494   61.403416   11.941057
H   65.577347   42.235779   24.585474
H   92.824989   18.621803   90.067284
H   37.980293   97.786263   37.217922
H    9.266941   58.775818   37.088821
H    6.432487    4.877511   36.726334
H   33.924973   38.398232   88.680923
H   51.683678   79.690605   17.554852
H   82.099983   77.568726   87.960159
H   28.801552   55.589069   77.352852
H   23.934174   20.773907   93.053665
H   89.115204   47.223557   17.876648
H   54.167870   75.387825   64.684875
H   99.307358   65.046173   31.428490
H   44.997429   98.608551   54.011177
H   35.814831   57.137592   67.499565
H   58.143059   44.167393   46.897213
H   32.990341   66.829918   44.946674
H   62.595428   63.663246   45.376945
H   91.678520   32.306473   71.399376
H    9.135201   34.128307   22.269760
H   15.084568   87.169960   80.324181
H   36.944912   95.448082   10.854833
H   78.027870   56.984604   72.117493
H   21.984509   80.144196   68.739235
H   78.181870   70.268425   12.509931
H    6.633643   17.924658   94.818176
H   66.239357   15.667850   89.333214
H   45.246391   29.886175   15.126207
H   40.436840   90.779716   24.107084
H   73.618690   37.332195   98.062912
H   19.068481   17.999611   13.911238
H   31.611967   77.682144   72.299004
H   28.337492   52.409149   11.971503
H   51.508801   38.579609   58.490578
H   47.575809    8.025532   92.772957
H   60.207531   53.454681   48.159027
H   56.365719   19.733229   14.910683
H   34.160912   36.579884   50.134384
H   75.487236   66.744835   18.253857
H   43.364185   41.318336   78.353027
H   20.067133   44.284985   18.803600
H   57.939140   35.721802   65.515648
H   21.925999   68.622826   36.176605
H   52.483406   65.834579   20.473890
H   96.525375   10.046448   12.116623
H   46.181767   21.306206   80.918571
H   49.953949   53.542664   52.639114
H   76.798912   38.696316   29.920561
H    2.954121    9.569014   96.344368
H    8.886368   68.586861   30.001827
H   14.974518    5.930202   88.345444
H   34.649006   45.878319   71.309982
H    5.439198   54.659508   62.934292
H   26.192303   71.956207   15.808675
H   56.059517   24.701759   86.022606
H   97.819679   30.127535   81.244156
H   16.999245   52.794312   79.263275
H   74.774437   79.852516   11.903003
H   78.297913   67.097237   96.753113
H   46.933525   34.485497   33.780903
H   78.961670   73.035294   29.775545
H   52.789444    1.325321    1.105534
H   78.144310   99.716949   62.649574
H   76.196800   32.008839   80.680771
H   81.568825   59.148216   36.795193
H   81.681946   21.564089   32.876240
H   43.092327   96.078773   45.050816
H   74.921982   46.571980   44.065300
H   83.541237   80.151749   17.174202
H   57.163364   53.748669   21.339184
H   18.771584   59.672806   89.017311
H   67.436203   46.731903   55.154423
H   12.860251   14.537691   47.413208
H   37.174118    0.951135   18.492081
H   96.858154   95.924339    6.015970
H   25.107733   31.398163   36.315720
H   94.026993   15.946703   71.151833
H    4.762325   62.492683    8.851097
H   57.241467   11.971657    8.761754
H   20.808197    1.135530   83.406204
H   53.276028   73.372368   78.585701
H   37.026447   98.497604    1.877717
H   75.814461   56.688572   86.278221
H   15.701439   37.887573   70.432030
H   89.260864    2.340639   45.293716
H   74.879868    3.403135    1.175974
H   15.548608   36.374237   18.194515
H   96.050468   47.044880   46.944962
H   86.115799   17.956253   69.902374
