100
TIME:    1.943, STEP:  1943
H   85.925446   43.838272   97.367142
H   47.222191   10.090761    0.564158
H   13.153257   13.691337    0.526642
H   81.802734   52.598900   33.660442
H   77.767776   28.497532   13.022305
H   97.886848   99.103096   71.168205
H   51.136875   92.537773   42.397987
H   67.170326   56.695255   29.794128
H    5.865349   99.481750   77.782722
H   21.742788   44.281960   83.775749
H   19.521896   44.423222   52.589359
H   81.681808   21.082979   54.623985
H   19.668503   44.153267   32.010811
H   58.875526   99.086983    5.102367
H    4.133584   96.470947   57.375549
H   23.401352   41.787361   71.755630
H   67.853165   10.490700   50.259315
H   42.665565    0.212372   32.186325
H   75.525551   59.866585   65.725571
H   40.169975   64.549423   48.621101
H   48.976257   62.786526    4.508366
H   48.655399   46.664474   53.812782
H   59.802177   78.819923   76.758392
H   38.515785   59.984959   62.771339
H   60.090935   32.076477   50.897820
H   37.749813   69.711609    7.055247
H   94.531548   61.711018   38.523022
H   68.596359   47.132381   30.997095
H   53.419556   25.375990   65.325615
H   75.496788   42.750870   37.851101
H   92.533852   96.283737   55.660748
H   88.439484   98.831367   19.390800
H    7.219408   26.322815   72.837738
H   60.197701   95.658493   89.896149
H   32.475517   12.044341   43.042976
H   41.491253   37.116764   13.960362
H   66.157104   33.380226   61.566105
H   83.683174   23.391682   59.552357
H   63.372345   39.030678   55.900459
H   80.184166   30.285826   90.905350
H    2.459633   22.852617   88.120773
H   56.995422   99.059349   94.085602
H   27.977034   75.151535   41.818130
H   55.285362   45.335678   70.709518
H   88.114601   55.228184   22.378031
H   53.020161   99.976540   91.060127
H   56.596363   30.554735   44.226021
H   56.343182   15.388372   88.799782
H   21.826605   71.529381   66.969131
H   66.639763   60.323101   47.767971
H   43.396381   82.059212   73.903534
H   99.559822   83.443436   46.508297
H   49.185036   33.274902   90.023277
H   31.697498   75.506340   17.555662
H   86.077866   28.838400   16.893690
H   95.997360   10.489948   26.482498
H   19.430071   33.482750   40.782982
H   81.377289   93.394928   63.508499
H   43.516624   20.865141   62.319336
H   30.800793   77.133774    8.346545
H   82.266403   88.213570   62.902966
H   29.950508    9.858925    7.438796
H    6.024683   74.655144    0.260673
H   76.462402   52.363930   74.389946
H    9.442309    5.659369   76.509537
H   81.983772   45.680702   61.070675
H   31.678526   15.537923   60.870495
H   46.149544   28.659935   59.089237
H   53.742409   10.174728   38.371246
H   69.746643   45.870857   97.641724
H   60.333519   63.199028   38.844212
H   13.758206   87.040573   98.878593
H   80.304184   22.198017   11.926571
H   87.429649   26.422304   87.730293
H   55.850189   31.408358   48.690777
H   71.594490   32.100319   65.189018
H   43.366920   58.141556   25.411776
H   23.266003   23.672255   21.744099
H   54.687263   47.810398   39.356117
H    4.236936    3.133524   53.529976
H   48.905079   49.382885   96.117683
H   87.108490   56.916824   24.305265
H   40.736439   39.687408   14.960901
H   83.831123   78.426613   85.958313
H   57.721634   27.348236   59.400375
H    6.570391   80.425163   76.711021
H   96.923286   62.080994   16.193190
H   87.233627   49.733231   75.543373
H   96.004341   85.989357   12.303318
H   94.550827   29.334984   93.675926
H    3.538134   78.347260   74.494339
H   22.049608   41.637646   70.543129
H    9.950886   85.850998   69.230881
H   35.026226   31.089556   57.824059
H   22.998672   75.687958   60.734581
H   54.405426   19.004362   67.090439
H    8.376426   79.185356   25.445755
H   13.999173   32.781158   24.947636
H   16.153027   45.225803   82.294662
H   59.908218   28.795052   10.546934
