100
TIME:    6.006, STEP:  6006
H   11.161356   71.241386   93.647354
H   34.603218   30.320127   56.804096
H   83.000702    6.000041   52.843861
H   82.484695   85.202545   10.953017
H   41.375854   54.164810    2.858711
H   34.884121   94.701347   73.541222
H   38.195782   66.892769   60.130100
H   47.826538    8.197867   56.743710
H    5.988991    8.840999   22.030237
H   10.715509    2.620835   42.876926
H   41.591537    7.907049   61.220306
H   26.608421   24.740147   65.415398
H   60.811569   98.395103   28.235283
H   57.699501   86.563698   14.298794
H   53.553200   33.547012   62.071194
H   60.035736   86.422218   34.490936
H   41.140388   79.220558   20.138220
H   29.502417    2.587090   91.326698
H   38.812298   30.312403   79.781036
H   30.705040   78.267616   25.248987
H    7.872154   58.301868   94.230827
H   38.181412   52.057037    7.811862
H    5.553957   45.775810   60.511826
H   61.014881    8.677462   61.016644
H   14.775607    9.853325   80.895546
H   19.167585   49.107880   25.640579
H   44.175003   92.814285   19.134413
H   25.773235   36.779472   65.301926
H   41.765831   94.003571   73.265472
H   31.289093   42.191399   60.848282
H   52.430534   60.624302   34.203331
H   44.979679   86.572632   43.258537
H   93.411369   29.054361   38.864868
H   31.870235   23.308556   18.727880
H   31.479275    4.911678   90.452209
H   94.729248   55.844551    0.543428
H   55.851913   84.582153   81.714699
H   15.754299   49.042324   46.267643
H   91.556458   50.555656   62.286232
H   97.495667   49.922123   10.573599
H   24.783806   62.260864   83.844460
H   94.060913   65.155670   86.576286
H   62.974033   99.516144   35.293945
H   95.841049   13.453390   67.969933
H   35.679897   94.926926   70.059921
H    0.598994   77.472092    7.561232
H   88.656540   51.464981   83.117119
H   56.560169   57.229828   40.195148
H   40.590469   35.032761    4.891238
H   51.841747   22.146513   63.595184
H   43.089191   89.802673   16.739929
H   97.013527    6.427180   79.779518
H   33.454777   56.833557   54.050777
H   37.606010    9.207299   96.845421
H   62.588341   84.942184   51.433002
H    1.076225    6.215994   88.168381
H   77.005547   16.246452   27.208138
H   78.836578    9.694784   58.854843
H   63.956001   92.536858   50.401115
H   62.683334   89.428909   92.785667
H   38.564137   99.266006   46.120335
H   85.753242   72.039078   23.601128
H   81.808220   97.444008   21.621002
H   55.461807   74.480347   64.080261
H   70.712830   81.155319   54.881794
H   32.387749   43.696953    1.304963
H    5.695523   56.003506   57.032120
H   65.490242   61.026951   53.324131
H   56.241833   18.233467   83.546936
H   52.064270   50.227333   89.086212
H   31.315918   86.752548   90.102119
H   78.744522   52.197571   96.352737
H   15.388767   21.225388    7.752296
H   97.996117   69.298180   46.297020
H   51.743511   37.203442   56.693741
H   67.646614   92.500908   91.802063
H   12.260463    5.985487   97.267097
H   14.153132   58.003868   46.129433
H   49.521397   35.877209   84.691277
H    4.985500   81.844154    3.498960
H   28.400309   91.416489   38.953129
H   91.979416   83.420563   84.538872
H   97.766808    7.560422    1.923932
H   63.351562   26.105717   14.862269
H   59.886925   73.207161   65.538055
H   13.060932   29.663734   58.858093
H   68.281883   66.667656    9.932775
H   52.622002   24.467108   33.304901
H   80.324326   59.767632   79.069466
H   35.327450   62.174877   38.917160
H   69.812920   97.738953   60.297527
H   22.682077   47.187668   47.963203
H   70.449677    7.728055   83.457779
H   27.724445   77.550240   31.774294
H   52.752022   11.748165   54.097263
H   89.992538   58.561066   57.231247
H   85.874535   12.352595   91.778534
H   26.684359   83.635086   58.309196
H   22.600891   62.739803   41.972092
H   12.267672   24.511555   19.163181
