100
TIME:    0.991, STEP:   991
H   50.304848   31.141487   98.238724
H   73.703758   58.476955   40.512173
H   96.791199   45.200222   11.703903
H   81.642944   91.820091   85.843376
H   86.294754   52.190544   38.834511
H   12.649151    0.135087   76.888084
H    1.032978   28.254560   67.950264
H   41.995651   74.335464   17.203224
H   29.267326   91.012695   37.707100
H   47.758080   30.613018   46.497681
H    8.074615    6.117615   44.291153
H   18.015812   73.364464   22.388372
H   80.224350    1.750360   26.631834
H    6.013359    2.021787   32.655743
H   92.554955   81.504456    3.135016
H   61.678329   25.056606   50.778793
H   44.391609   47.533401   63.583397
H   22.321388   46.508408   65.190231
H   60.695747   19.926340   15.573038
H   65.823921   84.754608   83.796059
H    5.469234   57.560997   30.347141
H   57.371387   45.407944   34.873676
H   72.512749   86.562477    3.995602
H   26.966919   48.567234   33.474403
H   94.140739    7.580746   43.874321
H   42.114986   98.081604   96.286926
H   76.624313    1.281426   19.631483
H   48.922836    2.695788   99.529587
H   32.719482   39.002964   10.327618
H   38.992031   66.312637   62.170193
H   55.084873   10.911379   30.992260
H   28.329382   25.132507    7.522214
H   40.162533   95.976448   87.074059
H   19.974190   82.903542   30.001318
H   56.138969   84.008064   85.073624
H   58.718628   62.332897   17.234442
H   74.848259   68.243507   86.552315
H   23.031578   40.816059   92.374016
H    6.167827   59.353065   47.144714
H   69.851524   19.408888   16.003519
H   67.516357   90.185570   65.692062
H   42.555748   56.335999   49.358921
H   19.776899   69.442673   73.053352
H   16.077368   29.379061   77.628304
H   70.692757   92.791672   40.911102
H   65.294777   81.833794   87.204506
H   46.544117   79.200134   36.091255
H   56.292339    5.586706   29.895369
H   93.999565   50.373924    4.941718
H   46.674229   45.833050   14.353577
H   43.469013   73.968788   63.865818
H   53.293343   71.782303    9.003723
H   29.436441   27.754883   45.314507
H   53.741261   91.035027   75.546890
H   61.867500   45.381466    8.815414
H   94.806198   11.490452   58.890823
H   59.075470   60.952110   50.239830
H   52.266541   83.299782   88.029007
H   68.434013   80.640427   35.403591
H   93.623489    3.958502   35.423180
H   22.213804   32.485260   37.129341
H   63.738617   18.721268   50.516388
H   41.451965   39.575157   65.571632
H   11.089029   47.185280    0.232423
H   71.658180   81.694908   87.851189
H   40.466530   93.007607    4.781366
H    8.058546   82.623535   14.907719
H   11.910737   74.213303   13.578132
H    6.292369   78.579391   98.077736
H   50.460724   97.986961   99.646362
H   90.562889   27.973764   50.261936
H   92.254837   18.636345   29.177599
H   42.377136   69.286049   36.338131
H    8.378919   86.667343   44.310524
H    9.952628   30.053774   76.522270
H   49.088337   71.087547   29.248276
H   56.932079   40.653191    8.569475
H   78.539307   85.921959   69.170624
H    9.052683   50.599461   28.738461
H   50.925064   54.983376   35.545563
H   30.275013   39.534008   39.217907
H   15.678265   50.699539    3.910376
H   80.499855   23.797438   24.287601
H   18.341200   96.962746   72.913155
H    4.075473   86.896286   51.686089
H   28.483356   45.456348   10.601376
H   33.341377   31.299156   70.797775
H   71.908310   25.952217   85.440086
H   76.248482   38.994392   20.092220
H   78.719467   68.506165   59.640652
H   64.578346   26.943327   54.389843
H   51.610920   70.038795   52.404343
H   48.868080   57.322914   95.581017
H   43.012054   73.345192   93.636879
H   39.459034   60.962845   38.857872
H   75.774109   56.597343   16.262749
H   83.941635   24.551695   80.195633
H   10.503766   24.675446   40.180214
H   61.503075   41.122105   62.038853
H    0.785879   53.249714    2.238164
