100
TIME:    4.106, STEP:  4106
H   39.649811   45.480164   95.386856
H   87.078194   27.361605   37.002106
H   50.333122   69.306145   75.145729
H   82.165787   63.483086   15.098767
H   58.393982    1.871509   54.373764
H   64.354012   96.759758   85.377098
H   37.774899   38.594738   11.547555
H   97.162788   43.822674   31.194622
H   52.694618   91.518143   41.629070
H   62.634300   75.339439   68.478271
H   18.324905   31.456165   44.238605
H   99.124138   29.503016    0.660009
H   82.054825   13.292068   17.029373
H   51.775688   92.420021   69.709396
H   30.446327    3.263198   53.401798
H   36.431763   52.603325   92.206970
H   93.926949   53.549686   47.173729
H   88.879845   95.025719   57.194485
H    9.220688   50.606453   79.681854
H   81.894951   18.620699   95.888237
H   20.620850   47.452587   45.798668
H   56.026566   49.534760   69.614456
H   30.923012   61.228386   14.872256
H   37.549629   85.926697    2.124984
H   82.730377   60.534225   66.863564
H   27.828856    5.269857    4.309405
H    8.013487   71.797073   81.439003
H   86.089447   48.093903    2.492487
H    0.451370   21.620396   63.079323
H   58.435318   89.215935    9.804050
H   77.653145   90.248634   84.525291
H   25.012403   39.066635   19.151039
H   59.579578   68.067833   67.697861
H   51.590057   97.432434   98.772758
H   78.706833   48.538048   74.754349
H   29.564779    7.028681    6.519921
H   73.617233   54.165512   32.001942
H   94.284370   83.809608   12.191208
H   71.758484   91.955803   46.410118
H   76.453606   27.793041   61.086933
H   54.635544   97.072189   39.081280
H   62.597244   96.136719   95.705185
H   46.608219   88.122406   98.054985
H   17.163118   81.583405   82.197388
H    0.490968   69.887817    7.471950
H   25.114635   41.232471   99.839394
H   73.812790   48.136436   64.881340
H   56.458698   37.660431   22.633904
H   85.052719   92.391205   80.684784
H   11.992656   93.230690   96.486183
H   43.231358   73.235603   96.709824
H    4.677111   82.733429    4.509637
H   94.043953   45.816711   64.400826
H   81.606712   40.213127   13.003070
H   13.868231   18.428041   35.270130
H   98.703751    8.214804   52.848877
H   56.553158   71.069756   46.502266
H   20.314445   89.126366    7.793486
H   14.108732   12.257055   96.263008
H   88.065338   43.389400   46.826180
H   18.710196   87.624168   94.260292
H   53.184654   89.724014    9.569676
H   52.817478   27.097313   51.909721
H   24.990725   64.130310   15.660892
H   95.296013   32.904263   77.942833
H   49.107002   38.151314   88.962570
H   58.136551   90.317810   65.299973
H   96.736107   52.364029   62.493145
H   61.546455   54.755356    2.710413
H   13.574320   54.663620   93.087067
H   91.647728   16.027431   12.893173
H   35.408821   15.255176   57.244831
H   39.273056   15.207531   56.472847
H   39.822079   89.543694   59.189354
H   60.136486   34.492718   12.660491
H   22.725153   70.729942   19.648159
H   39.753136   70.666550   63.665714
H   24.887676   82.239693   41.199402
H   58.408737   41.458111   63.498001
H   98.159088   85.332542   67.185661
H   91.223068   71.760117   25.394629
H   49.403641   71.042862   43.436646
H   77.584236   75.794617   20.976208
H   32.636719   63.518379   88.397415
H   52.401443   92.051491   49.721725
H   56.794910   59.876778   26.916458
H   41.385185    4.813286   19.333586
H   22.048426   76.558022   53.042168
H   40.895615   65.556664   94.609016
H    3.312503   40.344322   70.995148
H   92.057007   95.144218   20.173014
H   82.098846    4.293861   11.764580
H   48.656013   50.718384   36.527813
H   44.088680   62.293472    3.665598
H   85.599617   81.939262   10.438880
H   33.060379   33.589119   55.368736
H   36.687042    3.315649    1.048819
H   21.937857   51.197815   90.333473
H   13.112816   54.549648    1.115451
H   94.251106   73.264961    2.195579
