100
TIME:    7.905, STEP:  7905
H   82.739494   97.095146   91.908768
H   82.160080   33.224461   76.541519
H   15.650644   42.620911   30.546963
H   82.803436    6.963837    6.862029
H   24.363432    6.377878   51.367813
H    5.430869   92.644020   61.605568
H   38.669064   95.120407    8.634464
H   98.568878   72.484184   82.383095
H   59.307884   26.259750    2.494862
H   58.846199   29.889086   17.231998
H   64.951187   84.317535   78.299454
H   54.131081   19.927151   30.242031
H   39.674187   83.506592   39.529751
H   63.672829   80.710457   58.815159
H   76.620125   63.919266   70.748810
H   83.679916   20.328918   76.856720
H   88.433876    4.826014   93.011688
H   70.110718   10.181671   25.499985
H   68.384903    9.976399   79.827530
H   79.541336   37.941776   54.541756
H   95.182823   69.250305   42.687733
H   20.240389   54.577988   46.094498
H   80.199059   30.332151    6.178212
H   84.569656   31.394991   19.979462
H   46.855659   59.255188   94.920143
H   10.334637   93.064072   46.987076
H   80.422363   13.874827   56.818272
H   65.539757   25.418371   28.069056
H   83.057259   66.295425   83.498894
H    4.106560   95.190384   11.813591
H   27.166388   30.912613   83.960640
H   64.883812   34.104557   67.458626
H   27.174147   90.115318    9.941785
H   12.106565   49.276588   38.725479
H   84.221977   61.150597    5.997633
H   59.805759    4.582108   94.574013
H   37.991444   15.036928   31.348295
H   37.264206   14.285263   80.274956
H   11.398322    9.181295   78.259254
H   18.631149   72.144333   59.984535
H   95.001282   27.422575   28.582853
H   34.023689   72.602615   83.524162
H   79.317657   10.907595   72.459053
H   74.581909   45.327477   53.643780
H   70.954796   20.002361   32.562653
H   76.085136   13.690227   15.276209
H    3.494605   54.739143    1.344161
H   56.670101   76.788925   57.694149
H   96.103218   77.757637   29.139771
H   91.707275   51.052593   30.814411
H   42.958797    6.466520   36.757126
H   89.311218   30.213144   55.122864
H   72.844994   67.844604   43.761421
H   93.632172   78.228241   80.642532
H   11.386845   51.361832   67.584152
H    3.441427    4.218431   23.521942
H   97.395432   61.451012    7.818736
H   37.432785   30.357988    9.939794
H   13.724651   72.783455    4.618961
H   37.370094   35.392941   38.773582
H   58.354198   10.953001   98.060738
H   18.354042   54.363449   37.678101
H   10.730575   67.860016   91.400879
H   85.862175   84.824936   12.516950
H   46.086525   29.484766   31.727621
H   15.731571   49.292320   13.589572
H   53.335724   21.659294   48.715984
H   34.313454   69.632683   44.107315
H   50.887367   81.783455   64.446442
H   90.571190   45.691212   85.077225
H   71.012947   57.546158   67.326637
H   22.310154   89.122459   35.479641
H   91.569946   27.298979   59.068043
H   56.185825   49.111599   33.464691
H   43.262466   39.954891    0.664219
H   12.534400   14.208748   64.021767
H   84.725304   41.603073   30.937170
H    3.371258   33.834026   51.004238
H   40.586113   30.299244    5.876106
H   11.856891   78.396446   39.898323
H   65.568535   11.063210   52.453964
H   34.481529   95.735687   25.672237
H   17.883116   39.317661   82.775421
H   94.000938   88.606934   41.417286
H   67.422394   54.414524   81.451973
H   69.360458   99.416916   90.730286
H   95.111855   28.594582    0.484160
H   83.163170   72.508911   13.615410
H   19.735542   54.034279   63.538094
H   67.431488   84.042862    6.802687
H   47.527882    0.279656    0.400939
H   63.188847   90.011230   84.148354
H   92.179337   64.710045   30.310366
H   11.253973   92.760094   59.820782
H   19.919048   41.648254   97.735779
H   46.842194   83.572510   59.145409
H   35.140251   21.330917   82.564735
H   23.018839   77.598152   20.188444
H   32.136925   70.937904   82.910789
H   30.221277   75.777115   36.226635
