100
TIME:    7.844, STEP:  7844
H   86.864738    2.689086   91.964615
H   83.844803   29.918774   72.695511
H   14.602114   38.232254   31.262970
H   82.793198    9.477192   10.205742
H   24.910036    1.488516   53.021820
H    6.376897   92.710106   55.564301
H   41.865849   91.001678    3.864185
H    3.363365   67.206627   87.983635
H   60.807381   32.124863    6.334634
H   60.512306   29.013216   14.843369
H   70.625259   81.863052   84.175507
H   56.459442   16.869518   34.584053
H   43.563942   87.199020   45.591496
H   66.693230   80.898476   54.172863
H   75.879219   69.368088   73.682648
H   86.132538   25.664185   81.920197
H   93.339119    0.791462   87.458618
H   68.806686   13.149832   27.614498
H   67.434570    7.417216   76.613525
H   81.185104   39.236965   50.388588
H   98.802650   75.322754   44.343136
H   14.392259   54.497009   51.289215
H   81.013496   30.828028    7.923553
H   90.237213   30.665255   24.509830
H   49.037422   64.092941   94.469643
H   10.622250   94.862350   52.727699
H   85.682236   16.410620   55.607784
H   70.687004   22.571096   26.052740
H   81.730888   60.760975   86.382469
H    1.767639   96.700119    6.964416
H   24.765657   25.442616   88.786766
H   61.032223   35.789745   73.105705
H   22.877405   94.578438    4.446423
H    9.529101   54.866890   41.295380
H   85.740089   65.769157    2.286195
H   54.503071   99.804138   94.765755
H   32.140987   17.271048   26.541716
H   39.785240   15.401625   75.970070
H   13.973226   10.510225   84.170677
H   24.376659   77.854706   55.184937
H   99.170273   25.329702   27.145720
H   39.164421   72.363403   80.409752
H   78.792694   10.541679   68.052711
H   78.477249   44.303612   47.679768
H   76.246315   22.408909   27.342594
H   76.872581   12.526977   15.028387
H    3.017751   51.421822    0.758318
H   56.666378   76.160645   53.919811
H   94.319832   82.809944   31.573078
H   90.426514   50.124134   35.079674
H   42.962986   12.355837   36.113953
H   86.346664   35.873646   59.127106
H   71.580055   67.490906   47.303993
H   95.045105   79.223251   77.950699
H   16.243919   46.015862   67.065704
H    3.365452    4.282597   25.598526
H   93.528015   63.211128    2.017040
H   41.975021   36.118690   11.511077
H    8.913651   70.206108    9.301979
H   41.395279   30.704105   40.508568
H   54.506329   13.789688    2.816838
H   20.519051   54.931229   40.438347
H    6.589255   72.022491   95.583832
H   81.673637   84.492645   14.173167
H   43.665085   34.356846   26.046801
H   19.478683   52.324821    9.982659
H   58.229797   19.550365   45.770977
H   38.527122   66.144096   41.191162
H   47.846954   86.166527   68.271973
H   89.332314   42.627529   85.206604
H   72.949913   61.696533   68.058235
H   27.333374   91.147850   31.008558
H   95.547195   30.316355   60.632229
H   57.528484   52.972034   37.089172
H   40.323975   39.865070   96.039154
H   11.092263   10.299213   68.126534
H   79.185265   46.882957   29.855364
H    0.505659   37.822445   47.635258
H   37.661118   30.478420    5.195353
H   14.848321   81.719353   45.153542
H   64.374336   10.432137   48.808075
H   29.904282   95.340103   30.775505
H   14.024774   38.297520   76.966385
H   89.804024   83.387085   46.988506
H   70.392532   58.230282   87.365257
H   70.764084   97.176514   86.494278
H   91.037804   33.029778   97.575447
H   82.182121   77.389954   14.247879
H   18.469440   57.430717   64.036995
H   72.824463   86.552261    4.622146
H   45.031513   96.985634   99.112717
H   58.675465   85.423386   82.985802
H   88.269104   62.879833   25.593142
H    5.358633   89.059288   55.707638
H   20.973862   47.112434   96.334015
H   41.803848   85.981384   62.296120
H   39.982201   17.830463   86.072868
H   23.136583   74.579613   21.413126
H   35.042839   70.674492   88.019875
H   26.432512   77.342697   42.103153
