100
TIME:    6.243, STEP:  6243
H   95.134109   49.507225   93.430374
H   28.058201   43.163532   71.747658
H   87.076309   23.050148   50.061092
H   82.524475   75.438446   97.962036
H   39.253067   73.161407   96.432724
H   31.208118   94.444588   97.011223
H   25.775032   82.895042   78.663811
H   29.198807   28.700840   34.982426
H    0.163018   86.054321    7.111690
H    4.241369    6.024030   52.156437
H   19.546371   17.442938   38.392204
H   17.562164   36.619801   48.545204
H   45.688065   84.063576    4.685722
H   45.964500   85.833199   32.335255
H   56.433479   12.377289   50.675983
H   50.506699   65.693398   14.817323
H   22.082314   94.897362   41.713264
H   34.570705   91.054825   83.110390
H   42.502766   40.255508   92.268234
H   24.320404   73.233681   41.385063
H   93.808258   34.707104   87.797371
H   60.902832   52.371658   87.629181
H    2.389382   43.848305   53.731201
H   38.993221   11.512667   43.414143
H    6.299375   91.058289   82.645851
H   18.087206   42.101234    3.354070
H   23.737663   82.963394   23.837454
H    5.776050   47.841835   73.134903
H   46.919106   15.505945   62.062073
H   40.376865   36.325706   79.689377
H   61.758865   81.877205   15.452644
H   59.944065   80.023453   21.318245
H   10.105179   11.714949   60.215698
H   41.883873    1.589105    8.744089
H   25.585251   86.987373    4.879147
H   15.331079   74.407188   99.798195
H   78.583534   75.902954    0.389436
H    5.959009   44.704533   62.991375
H   81.553680   45.391533   39.318901
H   75.172043   27.734287   29.220316
H    8.587154   70.393608   89.428078
H   74.087906   66.085068   98.676537
H   65.014557    0.937701   52.411858
H   80.706696   17.431356   91.143394
H   15.122108   85.575089   90.340317
H   97.539787   81.992508    8.524080
H   90.508102   64.353592   85.391792
H   56.572826   59.670853   54.859379
H   47.517555   15.405113   95.437485
H   56.814381   25.754320   47.021698
H   43.072918   66.922134   19.237911
H    8.530972   84.435791   64.222054
H   38.371181   58.207764   40.285206
H   32.118225    5.340083    7.303236
H   43.718315    5.711156   53.449108
H    1.371408    5.966693   80.100342
H   92.031410    9.407531   49.748741
H   61.188873   87.312981   52.750473
H   82.648819    2.550828   32.207344
H   47.044502    7.645060   86.044823
H   53.514057   88.243423   27.642681
H   77.341652   69.833115   12.877025
H   97.897285   81.271767    5.369202
H   71.736252   75.771378   57.645016
H   80.118912   62.227261   76.952278
H   17.829273   31.914940   15.318702
H   86.680618   64.196350   68.474197
H   49.119102   74.580971   64.654099
H   68.053963    1.204171   68.683807
H   56.864952   62.148575   88.587158
H   23.789425   70.627319   87.259682
H   59.202305   44.332047   13.704642
H   99.935364    9.503044    1.675092
H   92.777748   54.298801   32.215019
H   63.169315   37.541569   74.659683
H   73.248314    7.690074   75.854034
H   33.780849   85.453148    1.462041
H   25.287823   42.506073   59.218750
H   60.885723   35.181065   87.334816
H   93.362869   68.933846   83.081200
H   33.038254   93.868362   53.118305
H    9.767229   84.957642   64.714043
H   12.757928   11.523496   24.495003
H   79.657539   46.386375   93.215904
H   48.347206   58.383125   42.563492
H    7.605711   38.369812   75.316025
H   84.110573   49.435829   21.233816
H   56.433617    5.502153   30.847603
H   85.242538   46.571632   77.131111
H   14.373334   52.423435   47.388420
H   79.511925   10.536304   65.302536
H   40.217678   65.012573   52.478195
H   85.641891   14.839574    1.785351
H   50.628658   91.928780   47.754868
H   48.654716   90.519363   59.543461
H    9.567840   49.201996   44.989960
H   67.062370   25.952841   78.148575
H   26.226892   95.362854   53.551910
H   11.310887   63.761417   22.120232
H   26.988070   18.429787   96.332008
