100
TIME:    8.415, STEP:  8415
H   48.249748   50.325432   91.441849
H   68.074692   60.862171    8.697284
H   24.417048   79.312958   24.560673
H   82.889038   85.951836   78.908516
H   19.793463   47.256611   37.539230
H   97.522339   92.091499   12.111300
H   11.940532   29.558985   48.517124
H   58.483887   16.606852   35.556541
H   46.771111   77.224686   70.394012
H   44.916451   37.211933   37.202003
H   17.512222    4.838472   29.174448
H   34.664452   45.490963   93.940605
H    7.153030   52.636902   88.847565
H   38.420296   79.138496   97.624428
H   82.814583   18.363541   46.222824
H   63.174393   75.722252   34.522736
H   47.422829   38.557293   39.439003
H   81.013275   85.365181    7.821711
H   76.330307   31.372959    6.697832
H   65.798355   27.112268   89.264961
H   64.918694   18.477161   28.847033
H   69.134590   55.255020    2.663306
H   73.389824   26.186300   91.586578
H   37.182961   37.496063   82.103210
H   28.615055   18.808334   98.686623
H    7.929873   78.029282   98.992813
H   36.443939   92.674942   66.937607
H   22.508718   49.223454   44.928268
H   94.146584   12.566813   59.390312
H   23.661327   82.568008   52.356750
H   47.239544   76.644554   43.611061
H   97.085655   20.015278   20.245338
H   63.099407   52.800713   55.886612
H   33.656494    2.538233   17.240763
H   71.529564   22.536400   37.028004
H    4.139532   44.529579   92.970924
H   86.906914   96.358650   71.534447
H   16.185246    4.951748   16.264977
H   89.871666   98.070213   28.836010
H   70.593750   24.398954    0.108830
H   60.145782   44.920364   40.598232
H   91.043442   74.602585    9.561841
H   83.706696   13.966887    9.298225
H   42.017422   53.890526    3.509667
H   26.717197   99.882027   76.205376
H   69.501579   23.415760   17.348162
H    7.481526   82.474129    6.242028
H   56.701229   82.041763   89.250084
H   11.010872   35.519661    8.795378
H    2.414620   58.815121   95.155357
H   42.923779   57.229668   42.134476
H   14.097542   82.889603   21.644173
H   83.420708   70.801758   14.142023
H   81.819122   69.909302    3.147765
H   70.780006   96.054855   71.918716
H    4.076632    3.681960    6.160339
H   29.726448   46.735283   56.323997
H   99.457947   82.194145   96.803001
H   53.948833   94.331764   65.467575
H    3.716556   74.593628   24.267967
H   90.524918   87.234863   58.295368
H    0.253110   49.616440   14.602041
H   45.355312   33.058990   56.428650
H   20.882366   87.603104   98.669891
H   66.330902   88.751892   79.221069
H   84.402260   23.938622   43.744831
H   12.417128   39.290516   73.338181
H   99.083984   98.799553   68.488266
H   76.305328   45.138100   32.458656
H    0.929030   71.306717   83.995529
H   54.816433   22.843922   61.209999
H   80.312180   72.188866   72.861313
H   58.317535    2.071852   45.990421
H   44.960316   16.834911    3.163426
H   67.830185   40.705853   39.332523
H   24.592302   46.895905   29.706984
H   31.044712   97.460083   39.983498
H   27.329618    0.488227   79.173218
H   65.041161   28.801212   11.567654
H   86.846184   50.614769   95.961540
H   75.552818   16.339396   82.935989
H   72.750320   99.043030   83.004875
H   50.142471   47.846714   31.345203
H   29.088280   32.249367   94.837547
H   42.590088   22.512287   32.013039
H   57.623112   18.150036   26.146500
H   29.173677   91.513100   24.802971
H   91.365379   31.697128    8.327553
H   30.320984   25.638262   59.366951
H   22.339502   63.062462   25.033468
H   68.399162   27.816730   11.171531
H    0.923685   28.367508   93.868050
H   24.871082   80.009422   69.749451
H   60.541977   23.701160   94.209358
H   11.100117   95.964554    9.454655
H   88.966064   63.432739   32.803398
H   94.659538   50.598244   53.234444
H   22.034418    2.834867    9.949301
H    7.841899   73.140205   40.193317
H   61.897839   62.688213   87.096405
