100
TIME:    8.815, STEP:  8815
H   21.199577   13.644018   91.075638
H   57.027328   82.536194   33.918652
H   31.292658    8.090629   19.865543
H   82.956177   69.472343   56.983711
H   16.209173   79.318375   26.694031
H   91.321167   91.658150   51.725403
H   90.976112   56.570091   79.797646
H   27.044678   51.210735   98.829063
H   36.938347   38.766434   45.214733
H   33.991158   42.955341   52.863625
H   80.305206   20.932522   90.644051
H   19.396507   65.541008   65.467705
H   81.646301   28.427307   49.096512
H   18.615419   77.905586   28.065449
H   87.672981   82.633583   26.987595
H   47.091629   40.736900    1.318462
H   15.257283   65.013100   75.852577
H   89.566208   65.901070   93.955643
H   82.561996   48.154575   27.770245
H   55.022091   18.617701   16.498743
H   41.182121   78.656464   17.990404
H    7.482979   55.786026   68.599609
H   68.049248   22.934652   80.142487
H    0.016897   42.281219   52.396206
H   14.309850   87.086548    1.639930
H    6.043123   66.237289   61.352215
H    1.951239   76.048965   74.872177
H   88.757660   67.894104   58.151535
H    2.844274   48.857571   40.481621
H   38.998634   72.668106   84.156067
H   62.983562   12.514189   11.964333
H   22.341633    8.964376   83.215385
H   91.273331   23.534798   91.921768
H   50.557129   65.880554    0.390341
H   61.574730   92.250832   61.365772
H   38.910038   75.860825   91.713600
H   25.272530   81.710213    3.052941
H   99.653023   97.631981   44.490685
H   72.989342   89.354393   90.073700
H   32.919266   86.952568   31.580084
H   32.808136   58.644119   50.022060
H   57.333725   76.171188   29.982677
H   87.149078   16.366447   38.189396
H   16.477261   60.607445   42.617947
H   92.019974   84.104439   10.434497
H   64.338005   31.043629   18.973223
H   10.608878    4.227385   10.083254
H   56.725643   86.161636   13.999439
H   22.702156    2.392774   92.839569
H   10.810768   64.903831   67.189049
H   42.896313   18.612194   46.352005
H   33.538570   45.772625   95.385963
H   91.715385   73.121094   90.911118
H   72.553986   63.384354   20.797607
H   38.931862   31.109041   75.318375
H    4.574831    3.261199   92.543381
H   55.083504   35.193535   94.367210
H   69.672791   44.419487   86.500267
H   85.497902   11.233586   34.757881
H   77.319176    5.337517   12.891014
H   15.757334   68.631348   27.109455
H   86.056328   45.893295   96.503304
H   72.511948    5.762889   28.999451
H   48.350620   89.782059   87.811737
H   82.206146   56.805401   16.471247
H   59.829506    4.053826   67.395958
H   80.324326   53.118031   92.649704
H   71.453369   21.676872   87.610580
H   96.239410   16.396645    7.370419
H    9.053069   91.399490   83.147141
H   42.111965   95.626701   56.412636
H   47.373047   58.907616    2.182455
H   32.237213   82.284447   35.733463
H   36.155994   91.518654   79.396492
H   87.098984   41.294842   69.660889
H   34.049698   72.532707    2.792315
H   67.372879   62.840839   47.078835
H   46.119671   74.334663    1.267793
H   84.224510   27.626286   16.031618
H   67.229485   28.824995   61.501091
H   83.383629   20.477579    6.843648
H    2.767237    1.638707   49.540619
H   75.443214   54.536167   69.439857
H   56.606140   66.477882   58.302380
H   23.113770   97.490158   93.238358
H   48.415958   32.842812   53.923599
H   55.888767   62.429848   43.876457
H   97.798485   99.689064    4.180025
H   38.622074    3.367632   56.095467
H   86.974442   46.604332   39.331696
H   84.768791   49.414021   19.618797
H   30.519632   58.451553    1.490789
H   50.511951   92.008934    0.682067
H   99.201370   47.968739   21.180021
H    4.183518   60.136585   18.645567
H   22.004486   47.636841   12.142855
H   62.909050   73.553566   30.230175
H   21.262323   22.626953    1.918600
H   88.786888   74.867500    6.688068
H   86.744995   52.425152   48.563686
