100
TIME:    4.180, STEP:  4180
H   34.645416   38.693970   95.319107
H   85.034431   31.371782   41.668320
H   51.605110   74.630089   74.277412
H   82.178207   60.434380   11.042436
H   57.731171    7.802936   52.367264
H   63.206402   96.679588   92.705284
H   33.896832   43.591793   17.334452
H   91.346535   50.224392   24.399960
H   50.875557   84.403366   36.970760
H   60.611992   76.401970   71.375671
H   11.441605   34.433735   37.110844
H   96.300133   33.212273   95.392555
H   77.332718    8.816963    9.676346
H   48.111595   92.191933   75.340469
H   31.346542   96.653259   49.844410
H   33.456451   46.131035   86.064392
H   87.976326   58.443989   53.910240
H   90.460655   91.427116   54.628490
H   10.373268   53.711052   83.580811
H   79.900871   17.049204    0.926496
H   16.229584   40.085445   43.790474
H   63.121017   49.632996   63.312668
H   29.935005   60.626549   12.754958
H   30.674232   86.814209   96.629227
H   80.083649   54.665466   67.410072
H   27.491522    3.082199   97.350655
H    1.632364   68.721268   82.906898
H   79.845245   51.547974    4.938651
H    2.060518   28.334042   59.581215
H   61.272873   87.384453   15.686642
H   80.565224   96.884651   78.670647
H   29.684828   37.022308   12.300484
H   64.792213   62.653557   74.364365
H   54.716675   90.650757   95.655174
H   76.867447   42.944237   79.260788
H   35.997547   12.824739    6.287105
H   80.715073   51.455551   37.832874
H   91.225502   82.455757   17.413067
H   68.635254   90.343376   39.238884
H   69.483360   20.865421   66.909119
H   49.578079   99.611649   40.824688
H   55.946548   99.457550   99.181839
H   47.245625   88.566162    3.400160
H   12.437906   82.823212   89.432983
H   94.071770   66.967834   13.804507
H   24.159939   42.643909    0.139963
H   74.390915   52.160728   65.591576
H   56.462650   38.422607   27.212608
H   87.216171   86.262177   77.733185
H   13.544673   94.356453   91.310158
H   43.225712   66.091469   97.490067
H    8.273172   75.867065   99.651550
H   95.578468   46.245789   60.102764
H   79.892662   39.005501   16.268291
H    7.976465   24.913317   35.899632
H   98.796341    8.136892   50.329742
H   61.244213   68.934532   53.540260
H   14.804223   82.138054    5.887339
H   19.944746   15.383814   90.582253
H   83.181763   49.077496   44.721443
H   23.378386   84.182518   88.490334
H   50.558250   89.035233    6.221284
H   57.841633   22.047470   46.835320
H   30.072184   64.533417   13.651569
H   98.232933   26.993965   84.834038
H   44.561043   34.472542   93.338028
H   52.199478   92.876465   68.872604
H   91.624443   56.596085   66.030769
H   65.234634   49.438187   98.069336
H   15.073549   58.385864   92.931244
H   89.297966   10.992409   12.005379
H   29.307331   12.799132   62.663059
H   34.448196   11.547390   54.575310
H   38.192715   84.861107   54.792442
H   63.704037   34.598293   18.270391
H   24.474771   75.472374   14.668926
H   46.472145   64.252975   64.974403
H   28.364330   77.401283   45.286362
H   61.957092   41.240749   64.323753
H   94.529999   81.302605   60.810478
H   92.670639   72.525681   29.817228
H   54.956238   71.526138   37.248901
H   82.265694   77.029907   28.024364
H   37.727493   69.850655   81.638321
H   48.798325   87.423103   42.548233
H   55.091587   62.595207   32.055222
H   46.327477   99.432861   22.862181
H   23.239397   70.633369   52.272652
H   42.431259   61.436394   94.003792
H   96.770004   37.299568   73.640747
H   95.085388   99.140282   21.735758
H   87.574097    9.858738   13.174747
H   53.399574   52.938858   42.250347
H   51.241283   66.782059    8.654970
H   84.320290   75.311150   12.139239
H   39.172470   30.667007   51.546562
H   30.813259    7.562243   96.793015
H   22.209417   51.827881   89.148994
H    9.587608   54.868633   94.917442
H   98.847878   71.365730   95.067123
