100
TIME:    1.473, STEP:  1473
H   17.709463   86.939774   97.797440
H   60.296074   84.609108   70.916649
H    5.074253   79.877800    6.044286
H   81.723846   71.962303   59.424526
H   81.977524   90.824974   25.765144
H    5.174726   99.612282   24.621572
H   75.769554   60.802944    5.643350
H    4.111404   16.035694   72.948677
H   17.418846   44.670502    7.366366
H   34.585747   37.533455   65.373344
H   63.240158   25.511631   97.862961
H   99.618057   97.524773   88.079643
H   49.564186   72.588783   78.724358
H   82.147469    0.535784   69.336952
H   98.416679   38.452015   79.967239
H   42.298599   82.897087   10.769149
H    5.640513   79.408829    7.468925
H   32.621696   23.068863   48.480270
H   68.203316   40.148186   40.965267
H   52.831490   74.532333   16.621286
H   76.866730    9.575020   17.264904
H    3.588624   46.044128   93.831398
H   66.077354   82.642403   90.205200
H   82.183846   54.348057   97.675797
H   76.901237   69.351540   47.430336
H   39.904888   83.717804   51.107834
H   35.060135   81.246964   29.196318
H    8.254822   25.194363   15.461551
H   43.199982   82.734222   87.543327
H   57.474483   54.383255    0.488345
H   74.045387   54.136063   92.852020
H   58.763279   11.816468   62.901085
H   74.114578   60.710487   30.496428
H   40.339455   38.730995    9.696444
H   44.158104   47.572701   14.424583
H    0.625940    0.195093   15.575772
H   21.079216   50.592140   24.531805
H    3.110680   31.994053   26.387150
H   84.500076   49.063789    0.946183
H   24.453634   74.286461   53.927441
H   34.577782    6.725449   77.047775
H   99.236328   77.967583   72.004150
H   23.928648   72.333084    7.870154
H   85.298637   37.457642   24.756487
H   28.884033   73.772324   82.158524
H   59.083775   91.012001   89.152473
H   51.633595    5.199768   40.209908
H   56.318081   10.549314   59.718822
H    8.089345   10.456093   85.715775
H   56.783314   53.169399   80.640953
H   43.432240   27.435190   68.947937
H   76.718178   27.055315   77.362686
H   39.435204   30.549683   17.319668
H   42.580448   83.172813   96.816788
H   23.494164   87.636047   12.905567
H   95.409286   10.983894   42.482407
H   89.633804   47.044304   96.081902
H   16.374626   37.781319   75.614212
H    6.450050    1.005744   98.399979
H   61.814510   41.007984   21.713951
H   52.618877   10.071458   99.549889
H   46.631500   14.234516   28.705917
H   74.146301    6.705443   32.504738
H   44.187859   49.807243   87.148277
H   90.787849   43.198231   32.738514
H   10.856522   69.045876   33.280605
H   69.386978   99.289368   38.179455
H   78.615517    1.778956   36.620518
H   30.316277   43.945938   67.849770
H   60.224136   22.230318   98.631409
H   75.257683   95.177422   44.481113
H   52.510906    2.639025   64.469109
H   10.949116   45.444859   23.978497
H   97.771141   56.166306   15.663826
H   33.191422   30.739603   13.061161
H   60.484501    1.977581   96.815910
H    0.693383   98.876938   17.098063
H    1.184546   54.405792   95.787415
H   32.157585   49.187351   34.113655
H   27.286942   28.730875   94.021004
H   39.707462   44.520519   68.026405
H   51.844349   53.847366   63.606155
H   10.999167   31.841681   70.195862
H   51.500027   38.208111   28.887703
H   80.606308   56.748337    4.961666
H   17.388737   63.162876   44.072929
H   65.533058   96.253815   93.781326
H   79.667557   87.362778   80.431511
H   86.250923   12.158187   16.148243
H   36.105316   48.673286   76.872795
H   84.303749   52.968418   64.568802
H   87.274040    6.289979   61.586731
H   79.794746   71.765915   32.870712
H   89.598610    2.580455   26.135876
H   31.125923   17.786865   49.934105
H   15.585388   37.563286   91.366409
H   45.682297   52.212856   52.475632
H   12.273499   28.779388   32.468773
H   38.541588   43.199818   21.665028
H   30.719681   40.868015   55.815010
