100
TIME:    9.764, STEP:  9764
H   57.022369   26.616261   90.206802
H   30.817623   33.961124   93.756096
H   47.605045   76.365349    8.725166
H   83.115463   30.374598    4.963740
H    7.705446   55.384644    0.964592
H   76.608887   90.630028   45.707687
H   41.238598   20.649843   54.010693
H   52.455154   33.311909   11.695089
H   13.610115   47.523209   85.478661
H    8.067556   56.581577   90.020821
H   92.031464   59.116791   99.229271
H   83.176674   13.109222   97.917366
H   21.131912   70.985893   54.787743
H   71.626724   74.980507    0.283782
H   99.199532   97.864227   81.348900
H    8.933083   57.733810   22.543571
H   38.944283   27.783630   62.243790
H    9.864547   19.722466   61.056389
H   97.346680   87.964600   77.772507
H   29.456608   98.464081   81.111137
H   84.866623   84.181099   92.230865
H   98.464539   57.045837   87.783508
H   55.378731   15.219934   52.991379
H   11.841118   53.634003   81.915115
H   80.368149   11.825897    8.645058
H    1.566565   38.260788   72.046669
H   20.117973   36.598804   93.696945
H    8.684109   12.190221   89.517845
H   23.480068   34.958134   95.623184
H   75.388359   49.180588   59.598488
H    0.329246   97.612991   36.882492
H   82.262314   82.742157   95.361717
H   58.121597   54.101501   77.415184
H   90.653885   78.910393   60.409462
H   37.956886   20.398140   19.102201
H   21.405024   50.193050   88.730598
H   16.293983   46.956795   77.830399
H   60.425762   80.269753   11.460181
H   32.930408   68.676109   98.108711
H   43.533627   98.109253    6.245434
H   67.951248   91.209778   72.380089
H   77.356926   79.895584   78.423576
H   95.316132   22.060940    6.737253
H   55.887615   76.537636   35.405163
H    9.687231   46.645664   91.637512
H   52.094467   49.144176   22.828680
H   18.028866   55.841503   19.196341
H   56.783566   95.936035   72.718170
H   50.439728   23.796040   54.985580
H   30.729292   79.355461    0.833473
H   45.649464   27.204254   52.027054
H   79.659256   57.713120   33.090462
H   11.397581   78.623718   35.794388
H   50.576874   47.897362   62.674507
H   63.370705   14.274821   83.384064
H    5.756809    2.262943   60.237183
H   15.247879    7.810203   84.625038
H   99.008743   54.797890   62.057030
H   60.346600   51.335709   61.903957
H   14.696285   78.282043   85.899208
H   75.624939   24.500372   53.124386
H   52.374474   37.060135   53.566589
H   36.953045   41.028603   63.934464
H   13.516026   94.951630   62.050217
H   19.872108   81.008644    4.847075
H    1.532188   56.876213   23.508738
H    4.184055   85.928650   38.468700
H    5.899455   75.950813   32.978271
H   43.539192   48.207565   47.852528
H   28.326736   39.064266   81.134338
H   11.972780   31.054050   45.030891
H   69.224556   27.397850   71.742035
H   70.361298   35.342793   11.398830
H   15.267742   31.457054   23.009649
H   32.811684   42.692219   41.614567
H   56.487373   33.353283   38.935966
H   53.562447   80.701462   63.912521
H   90.702507   12.285332   53.680405
H   29.732794   24.838772   26.624170
H   20.689747   77.127693   79.743965
H    1.962054   30.295420   63.564415
H   73.977776    7.799294   70.146675
H   35.467720   70.406898   59.817936
H   21.897087   47.686111   71.626183
H   76.906204   38.122894    1.244086
H   26.571987   67.704063   19.825184
H   19.270403   93.429497   89.128304
H   13.059862   23.752451   94.344757
H   58.315678   50.528099   48.333870
H    3.069613    7.557419   73.254456
H   23.606436    0.658696   39.659935
H    0.736024   29.825197   19.570070
H   11.344686   20.482931   74.069695
H   88.097145    5.329362   89.500160
H   87.776291   75.130470   40.451118
H    0.387928   10.162901   63.125610
H   87.582176   28.013737   75.651352
H   19.430529   69.581848   82.862511
H   43.578484   78.965508   27.200161
H   45.690361   28.075455   57.143620
