100
TIME:    6.085, STEP:  6085
H    5.818977   63.996666   93.575027
H   32.421364   34.601261   61.785595
H   84.359238   11.683410   51.916271
H   82.497955   81.947845    6.622609
H   40.668259   60.497009    0.716814
H   33.658787   94.615761   81.364555
H   34.055683   72.226860   66.308006
H   41.617294   15.032285   49.489948
H    4.047020    1.245355   17.057478
H    8.557463    3.755233   45.970097
H   34.243149   11.085657   53.610939
H   23.593002   28.700031   59.792000
H   55.770401   93.617928   20.385429
H   53.787834   86.320198   20.310947
H   54.513939   26.490578   58.273441
H   56.859390   79.512611   27.933132
H   34.787697   84.446159   27.329901
H   31.191847   98.743149   88.587929
H   40.042454   33.626770   83.943436
H   28.576828   76.589638   30.627680
H    3.184188   50.436947   92.086342
H   45.755219   52.161911    1.084338
H    4.499118   45.133308   58.251617
H   53.674328    9.622530   55.149143
H   11.950196    3.588028   81.478981
H   18.807459   46.772331   18.211727
H   37.362434   89.530655   20.702093
H   19.107430   40.466927   67.912918
H   43.483589    1.171116   69.531006
H   34.318302   40.236168   67.128647
H   55.539978   67.708412   27.953102
H   49.967808   84.389572   35.945107
H   98.975700   23.274557   45.981812
H   35.208122   16.068657   15.399950
H   29.515305   98.939766   95.262360
H    1.596617   62.032097    0.294984
H   63.428734   81.689087   87.939613
H   12.489202   47.596394   51.842220
H   88.222198   48.834282   54.630455
H   90.054459   42.526119   16.789171
H   19.384922   64.971519   85.705666
H   87.403244   65.465469   90.609703
H   63.654507   99.989883   40.999916
H   90.796265   14.779379   75.694420
H   28.827408   91.809647   76.820053
H   99.579399   78.978897    7.882182
H   89.273727   55.761185   83.875343
H   56.564388   58.043503   45.083225
H   42.899498   28.490211    1.739782
H   53.498631   23.348944   58.070030
H   43.083767   82.175827   17.572590
H    0.852804   99.096542   74.593697
H   35.093578   57.291626   49.462254
H   35.776749    7.918227    0.331540
H   56.298332   91.865051   52.105038
H    1.174619    6.132894   85.479034
H   82.014168   13.966823   34.721672
H   72.954010    2.234046   56.820053
H   70.186935   95.874733   44.336525
H   57.470390   95.500732   90.538719
H   43.547443   95.591812   39.961117
H   82.949379   71.303757   20.026382
H   87.171242   92.053261   16.203735
H   60.886909   74.910690   61.935192
H   73.848190   74.846024   62.238621
H   27.534908   39.769615    5.976207
H   99.357071   58.734440   60.846146
H   60.033195   65.544960   57.100788
H   60.179417   12.557030   78.592560
H   53.664497   54.201080   88.919861
H   28.807087   81.377472   89.154640
H   72.230301   49.575729    2.136584
H   10.237602   17.317940    5.726547
H   96.256660   64.297997   41.603020
H   55.552113   37.316151   62.682388
H   69.513847   97.563774   86.486053
H   19.433159   99.138283   98.664207
H   17.864697   52.837936   50.492538
H   53.309505   35.645161   85.572456
H    1.111404   77.540718   96.693077
H   29.946291   92.233780   43.674854
H   97.908997   83.932877   77.930626
H    2.763667    8.881463    9.447573
H   68.786842   32.866112    7.646935
H   56.040352   68.266045   57.879868
H   11.242519   32.565598   64.344070
H   73.558113   60.923714   13.699789
H   53.892540   18.145456   32.485802
H   81.963730   55.368965   78.423347
H   28.342661   58.924397   41.740913
H   73.045921    2.004861   61.965862
H   28.527277   53.129303   49.468201
H   75.513748   10.098561   89.566971
H   35.359295   82.343086   37.101151
H   51.386253    4.671640   55.912663
H   96.517609   55.441376   53.150818
H   79.603813   16.886091   87.235214
H   26.531870   87.544342   56.723434
H   18.837494   63.080341   35.354805
H   17.174547   22.484299   11.552697
