100
TIME:    0.122, STEP:   122
H    9.072305   10.833268   99.034317
H   97.876534   11.359398   85.696259
H   81.860565   82.681145   21.907387
H   81.497086   27.624342   33.475777
H   94.078308   82.536362   62.397331
H   26.124512    1.080869   90.827415
H   46.575893   69.576714   99.993042
H   10.297338   99.157257   96.991859
H   50.629005   74.563553   92.407326
H   71.506538   18.138779   12.466181
H   88.906891   71.151474   27.998138
H   51.185421   29.805733   84.245232
H   35.502113   54.326248   13.003392
H   49.041309    4.701113   66.525429
H   81.986824   59.123878   44.908504
H   96.617645    1.066291   22.912746
H   14.257544   90.065163   84.462669
H    3.751826   88.767670   95.316696
H   47.164032   83.471466   69.788788
H   89.346962    2.974237   24.511103
H   57.036896   44.072319   53.930084
H   74.045937   44.260963    8.867151
H   84.115150   93.629997   28.860405
H    7.706452   38.144962   98.013412
H   25.219423   76.497810   37.459183
H   46.095783   23.978058   77.735893
H   51.559101   37.405720    2.387269
H   22.246727   62.133724   70.808670
H   13.823951   60.160702   51.404999
H    5.672039   87.820175   93.087639
H   20.900881   32.982643   99.757988
H   73.460541   49.139534   87.969948
H   78.951843   59.556038    8.787679
H   83.256844   62.542114   66.611687
H   77.739326   49.697952   32.157402
H   83.162407   94.069450   20.224546
H   91.500984    0.066758   18.077995
H   58.945984   56.721294   31.050592
H   45.236271   77.903648   30.433578
H   51.701900    0.761468   47.633171
H   26.904392   60.364887   45.212711
H   20.656509   17.332041    8.532031
H   12.292514   64.231537   10.285723
H   71.569046   14.816388   92.660172
H   46.072548   27.078388   66.547424
H   76.393303   65.497612   83.796715
H   37.368275   32.321949   28.665716
H   56.245930   96.638199   76.126617
H   68.593620   22.345348   39.607635
H   28.448515   32.606312   75.131485
H   43.531628   57.866325   54.709591
H   11.062242   52.418755   66.054153
H   11.410046   22.716125   95.784096
H   73.859894    5.211688   37.199299
H   31.047157   69.200775    1.441403
H   93.718887   12.404072   88.473633
H    3.986906   86.026558   67.590645
H   16.975351   65.365166   10.412477
H   99.899818   43.923798    2.117038
H   50.970642   37.165352   60.133263
H   67.396561   72.896225    4.884368
H   94.581116   26.809799   89.834229
H   82.508461   98.833595   25.188446
H   51.417435   42.458130   23.828390
H   37.164055   51.100803    6.922444
H   93.850838   36.208179   53.399456
H   77.780174   52.579151   72.952377
H   71.938362   24.514744   72.034904
H   62.984612   41.020180   52.581814
H   32.858223   54.280899    1.474218
H   18.158674   87.103416   60.684208
H   63.906467   47.476601   65.555061
H   99.036636   12.272709   58.621372
H   27.505646   41.659557   95.957787
H   68.052414   28.817289   10.646203
H   28.542143   15.391226   87.720596
H   78.032227   15.969994   93.190857
H   37.712112   42.743031   21.177525
H   67.402092   53.142849   19.048798
H   93.542343    2.309360   10.410732
H   13.269474   30.543268   87.280487
H   50.477787   45.024307   76.579041
H   25.515354    9.293670   41.519684
H   58.563332   22.601292   52.286842
H   46.390305   41.253830   35.925652
H   48.489719   13.531260   50.256618
H   75.302818   94.482521   29.360622
H   57.919128   95.526558   94.470070
H   58.215034   87.379723   27.202835
H   55.548622    4.267339   28.573099
H   29.015322   80.018616   36.038158
H   87.313393    4.682195   35.849373
H   93.112129   31.287035   28.353205
H   59.020393   20.632399   35.044712
H   54.482487   38.801876   18.890659
H    3.998291   90.913933   61.147469
H   52.918419   74.681755   30.172585
H    7.313284   17.276428   54.083206
H    2.900326   37.376186   34.832371
H   46.818127   75.569298   85.935532
