100
TIME:    2.117, STEP:  2117
H   74.158356   27.881546   97.207840
H   42.382072   19.524744   11.539738
H   16.144148   26.209137   98.484673
H   81.831940   45.430321   24.122799
H   76.209274   42.444401    8.304649
H   95.189339   98.914589   88.399345
H   42.018177    4.286693   56.005013
H   53.494270   71.748627   13.817535
H    1.588054   82.752411   66.830727
H   16.988295   46.780342   90.588554
H    3.336841   51.424534   35.829487
H   75.041580   29.804750   42.238274
H    8.600572   33.626076   14.716639
H   50.259956   98.550667   18.344326
H    6.250141   80.928406   49.010880
H   16.404709   26.568672   57.312271
H   53.863815   21.997597   66.100723
H   46.383934   91.750786   26.153454
H   78.236336   67.166016   74.893387
H   35.482521   60.854755   60.467842
H   38.650848   45.463787   99.785721
H   65.339203   46.894333   38.996155
H   57.479027   77.404793   71.780212
H   22.349312   62.071812   49.847984
H   53.867546   18.276962   52.181526
H   36.951977   64.526337   90.745781
H   79.527977   54.477390   41.975887
H   53.914963   55.254116   36.748249
H   57.202972   41.162514   57.100334
H   82.168877   38.444412   51.683804
H   99.378517   11.887827   41.893093
H   99.425995   94.023109    3.282783
H   19.475925   13.592613   88.513031
H   67.549477   79.712387   82.565613
H   28.149883   98.891022   53.637871
H   56.619610   50.786182   13.362317
H   82.846619   27.007635   75.276672
H   76.490700   20.206974   71.831383
H   55.715324   35.289612   39.158867
H   63.794689   13.996516    4.594908
H   90.568031   28.823114   92.220139
H   41.357300    6.868811    2.260320
H   29.475798   76.194962   54.385712
H   44.174065   48.252228   87.722946
H   73.020760   48.363605   37.268333
H   50.775333    3.295307   91.766365
H   58.268139   39.967865   45.776886
H   56.352474   17.179853   99.565926
H   26.912313   57.118519   60.028122
H   70.287773   62.971493   35.598644
H   43.383106   65.260841   75.738159
H    8.015467   67.298203   35.085033
H   52.794548   34.283813   79.918236
H   27.668491   72.668114   25.233343
H   72.226578   44.092731   18.369886
H   96.215073   10.307083   20.559128
H   30.460390   28.462090   57.331779
H   68.420746   76.962952   59.026810
H   57.239143   28.217581   48.960556
H   19.319118   90.507156    3.397892
H   93.242294   80.121040   49.337093
H   23.775574    8.239025   99.565536
H   17.827232   62.789818   88.323654
H   88.410034   53.310448   69.666649
H   16.348705   91.762604   92.713181
H   71.294624   37.030617   71.358910
H   17.717718   21.553530   69.271011
H   34.130226   38.611206   67.407440
H   62.415062   97.672218   27.457748
H   73.272522   54.623161   97.275330
H   54.808403   51.359154   36.757160
H   99.411377   81.265884   11.618105
H   68.959244   13.591740    7.464794
H   83.601097   15.411216   77.388954
H   64.238792   31.655939   61.880962
H   75.707130   43.252769   53.481533
H   59.165672   43.059662   28.489618
H   31.440838   12.294790   31.353977
H   63.028458   47.300434   41.297173
H   95.703590   93.657486   38.539680
H   52.310154   51.182995    6.517195
H    0.163281   58.053177    9.755041
H   51.745518   42.592010   31.533573
H   95.799995   93.316017   70.065308
H   49.249435   16.463943   42.532974
H    2.565445   86.815819   88.794060
H    8.544378   49.429779   24.490156
H   90.034683   35.802292   73.732643
H   99.615181   76.301155   10.879890
H   79.167587   22.175697   99.896660
H   10.659027   87.743408   78.168900
H   34.924648   54.722988   73.859261
H   21.114620   91.065475   82.691879
H   51.844509   41.644566   69.555931
H   19.989861   60.102600   64.733055
H   68.777100   12.133623   58.103165
H   94.565170   89.170921   15.438931
H   14.638040   34.262665   22.163174
H    7.864363   45.975849   67.718552
H   70.714188   24.325974   93.788116
