200
TIME:    0.252, STEP:   252
H    9.839894   62.435169   15.544769
H   28.071241   33.053352   90.384331
H   17.886173   69.663391   45.939262
H   18.247009   77.114021   44.185898
H   15.082736   84.033386   53.485970
H   89.228210   52.489296   65.194206
H    3.533088   55.295616   49.883633
H    3.157540   89.404572   24.646381
H   87.915810   87.326324   47.426678
H   10.438778   74.730797   95.599129
H   12.611946   94.850533   93.340881
H   30.827423   42.343140   13.314057
H   11.468699   87.406136   60.799858
H    3.836468   53.257565   42.844051
H   19.042501   72.036964   42.949066
H   28.950611   25.471935   54.064140
H   84.771927    8.280518   14.849430
H   36.277222   83.743912   43.306728
H   65.424683   29.267475   42.660484
H   90.094429   79.539879   37.005543
H   58.229088   77.357285   25.290699
H   89.761879   49.273048   70.112259
H   94.645866   62.454208   48.848274
H    8.862405   88.168587   91.548454
H    3.768043   13.186600   44.982159
H   18.651159   62.868793    6.560217
H   99.128120   59.037540   49.564346
H   94.785675   70.624458    0.762846
H   11.574010   56.164986   38.268097
H   92.507156   21.085810   98.210800
H   13.345825   51.950596   16.209484
H   31.707836   63.787582   93.898567
H   26.833351    9.243752   73.325729
H   96.029396   63.591011   38.500046
H   47.412571   89.305161   34.127811
H   32.669273   49.648346   79.614082
H   86.608887   74.169998   86.045021
H   32.321323   45.065723   14.627899
H   52.626129   45.970913   44.698372
H   89.967667   39.639141   63.227631
H   80.507881    4.663242    1.922587
H   13.936602   42.855255   39.475319
H   76.485794   87.506264   50.773869
H   37.254532   63.816734   19.177511
H   29.187002   76.661270   44.796959
H   40.890923   13.526199   42.818386
H   80.200287   25.624275   96.442131
H   89.823677   65.550423   47.216263
H   87.544449   28.296780   61.174984
H   61.687969   17.855658    5.204738
H   77.922775   70.344231   27.393162
H   20.679392   35.904522   63.799683
H   52.500359   94.078819    8.085217
H   22.227997   82.436935   81.880867
H   76.690964   76.118057   90.385262
H    5.151823   72.054436   79.041168
H    5.396237   16.790871   49.525867
H   67.539780   58.858356    5.086855
H   27.927950   74.709274    7.416719
H   42.825748   95.921791   66.772400
H   50.380653   15.142282   41.885902
H   90.152298   16.453310   49.158146
H   71.777908   25.455057   84.480072
H   24.416786   65.169456    3.935427
H   71.541275   76.257965   18.420301
H   38.268982   17.027334   33.078995
H   85.726906   22.908867   86.083046
H   97.274223   91.477211   87.509132
H   16.949327    6.015410   61.827919
H   45.167889   41.839138   50.981953
H   58.459900   76.799683   73.602325
H   31.803242   23.506411   44.680828
H   77.874649   25.870556   99.093933
H    8.256305    8.700929   60.921947
H   79.291153    1.065832   67.048477
H   53.617073   18.652943   62.799057
H   95.376862   30.396929   71.975838
H   26.110775    6.188452   47.557198
H   11.621792   30.228071   34.672680
H   68.095276   90.600021   93.692535
H   43.877407   29.899237    0.955501
H   27.164101   68.374458   87.486259
H   10.952895   13.797931   89.928612
H   24.282747   62.251991   94.242645
H   38.480896   99.450745   57.442123
H   25.005295   85.354462   27.533020
H   36.393044    2.809114    1.798834
H   75.231697   18.097727   11.894803
H   66.054962   72.080513   77.209999
H   23.384026   86.585030   54.733486
H   40.739784   34.996387   80.701111
H   83.971840   88.640747   98.629684
H   47.829746   16.726761   95.388062
H   59.489765   94.002525   69.434166
H   25.428970   56.763878   68.439568
H   68.775124   27.977592   28.497465
H   79.468376   13.864119   98.846039
H    6.564806   28.625179   48.707188
H   36.745995   69.657822   52.923775
H   67.413078   98.122391   27.253336
H   10.401637   80.758179   69.504860
H   91.018532   76.838120   65.798409
H   23.428144   36.731415   30.670544
H   22.452524   67.961639   90.638901
H   25.322832   27.315033   25.476589
H   87.898170   26.185366   43.328957
H   66.226753   30.245783   56.203384
H   64.680519   34.735115   18.277594
H   73.101524   39.938179   99.712852
H    4.752216   27.893076    5.595995
H   47.352425   95.962502    0.804294
H   86.475800   63.647102   90.647850
H   56.885620   80.413910   93.674355
H   63.183525   19.138641   74.644531
H   63.449806   82.468262   26.351906
H   13.548766    5.446253   79.475739
H   32.081562    8.611682   84.319992
H   40.710232   27.587132   33.738640
H   19.318068   58.164143   82.946579
H   71.099312   46.914364   49.790405
H   40.679817   21.839176   87.126610
H   17.771320   27.195759   48.541145
H   32.525703   21.316463   24.385130
H    3.900510   66.886971   17.339714
H   76.557304    8.654984   92.416252
H   48.161983   62.680782   25.299688
H   95.088356   49.245956   70.591324
H   75.166191   87.664085   35.103924
H   92.615395   52.049297   84.616798
H   68.326828   24.092468   66.706047
H   49.093361   84.757233    3.869931
H   81.239403   86.170395    9.609975
H   92.398567   83.178566   97.464417
H    0.332158   13.310631   49.854813
H    5.018893    1.153145   55.865463
H   62.038467    1.611449   83.504814
H   68.912582   86.595100   55.936043
H   91.320702   63.846272   83.008766
H   46.626892   44.501450   71.547249
H   43.454445    8.514396   95.124054
H   51.211742   62.715775   15.297566
H   56.685867   41.375435   46.526630
H   54.619743   56.981861   98.979492
H   57.163216   26.093300   78.323280
H   40.865993   69.369095   49.460941
H   46.379814   62.182503   29.271446
H   45.015068   96.725243   47.195972
H   42.324776   72.972008   68.756126
H   65.506073   64.291306   97.825165
H    9.844500   88.805809   89.547867
H   75.797249   61.513744   51.253605
H   34.292511    6.777668   47.776276
H   76.733215   31.389889    3.043320
H   10.227110    1.418184   75.655983
H   14.088383   54.195950   60.970329
H   63.858330   43.558659   54.430145
H   59.436871   61.243435   80.897873
H   46.216675   36.467361   10.005268
H   11.832590    1.689116    2.159918
H   63.545139   56.454193   78.701584
H   54.073822   83.921867   83.096825
H   43.040691   22.994114   35.440018
H   65.735893   34.046768   37.227062
H   11.715151   20.532185   70.685364
H   58.839287   22.495543    9.942453
H   12.120444   64.057472   62.236225
H   74.693199   97.372871   52.348911
H   23.642696   31.478539   48.508930
H   94.236015   28.131186   36.828598
H   27.020576   10.369157   90.268219
H   79.135742    5.776527   35.975067
H   45.748390   65.001434   57.494965
H   37.904800   76.938614   90.086380
H   71.076744   74.256622   74.521927
H   70.880127   94.946274   98.667183
H    1.277869   47.725670   23.298258
H   35.294468   53.296013   87.409950
H    1.836355    9.212303   65.033646
H   75.294685   21.100603   68.994492
H   85.729698   54.583824   86.554283
H   81.198730   85.619438   41.440292
H   19.469709   30.120693   70.054245
H   65.082718   90.153305    6.307535
H   51.742210   25.242563   77.631752
H   85.678146   87.813904   78.347397
H   99.511650   36.325027   84.014259
H   31.769850    4.319014   99.531021
H   89.844543   67.732857   25.946430
H    6.270866   61.226917   66.680557
H   49.831787   58.208035   65.854630
H   48.393528   30.627327   79.215767
H   47.554543   85.255310   24.471540
H    4.367021   17.809509   58.081100
H   34.893909   64.010040   33.555119
H   84.482803   53.719341   21.777031
H   75.357437   10.412891   29.401966
H    9.541045   85.886620    3.871807
H   28.560743   97.167686   46.628288
H   11.753287   11.645472   77.480385
H    7.882578   34.586201   97.582077
