100
TIME:    4.002, STEP:  4002
H   46.683014   55.017517   95.482071
H   89.950508   21.725679   30.444277
H   48.545464   61.823845   76.366066
H   82.148331   67.767754   20.799391
H   59.325500   93.535454   57.193710
H   65.966316   96.872429   75.078026
H   43.225155   31.571850    3.414568
H    5.336990   34.825665   40.743877
H   55.251137    1.517316   48.175884
H   65.476463   73.846153   64.406250
H   27.998734   27.271473   54.256001
H    3.093609   24.290003    8.062647
H   88.691299   19.581406   27.363358
H   56.925224   92.740578   61.795238
H   29.181160   12.552744   58.401371
H   40.613281   61.699516    0.839814
H    2.290024   46.671207   37.706200
H   86.658165    0.083216   60.800747
H    7.600870   46.243233   74.202240
H   84.697441   20.829287   88.807426
H   26.792358   57.806408   48.620995
H   46.055984   49.396698   78.471024
H   32.311562   62.074211   17.848042
H   47.212349   84.679382    9.849154
H   86.450104   68.781754   66.095497
H   28.305677    8.364264   14.063351
H   16.981535   76.119827   79.376015
H   94.865082   43.239532   99.054802
H   98.189987   12.184920   67.995583
H   54.447403   91.789909    1.536561
H   73.560493   80.922340   92.753441
H   18.445753   41.939743   28.778847
H   52.253590   75.677086   58.328720
H   47.195892    6.963351    3.153987
H   81.291916   56.399620   68.420975
H   20.521723   98.863190    6.872768
H   63.641922   57.974106   23.807119
H   98.583321   85.712318    4.852368
H   76.147888   94.221916   56.488609
H   86.249626   37.529381   52.904011
H   61.743332   93.503220   36.631084
H   71.944168   91.469604   90.819077
H   45.712406   87.498749   90.542534
H   23.803957   79.840973   72.028442
H    9.512175   73.991577   98.572205
H   26.456371   39.248829   99.417274
H   73.000290   42.480675   63.883080
H   56.453144   36.589264   16.198967
H   82.012192    1.004881   84.832977
H    9.811442   91.648537    3.760209
H   43.239292   83.276009   95.613266
H   99.623154   92.383453   11.337284
H   91.887337   45.213684   70.440620
H   84.015648   41.910332    8.414111
H   22.148697    9.313601   34.385426
H   98.573624    8.324301   56.389282
H   49.960323   74.070610   36.611031
H   28.058586   98.947777   10.472395
H    5.906767    7.862689    4.246990
H   94.928741   35.395321   49.784187
H   12.149612   92.461082    2.369238
H   56.875816   90.692032   14.275472
H   45.756504   34.194267   59.041313
H   17.849215   63.564392   18.484806
H   91.168449   41.210964   68.257896
H   55.495918   43.321480   82.813278
H   66.480545   86.721863   60.278973
H    3.920176   46.416275   57.521343
H   56.362801   62.228134    9.233234
H   11.467295   49.432358   93.306061
H   94.950096   23.103878   14.140884
H   43.983711   18.706757   49.630024
H   46.053940   20.351513   59.139656
H   42.111996   96.124626   65.368797
H   55.122631   34.344341    4.776346
H   20.266230   64.064903   26.646053
H   30.310274   79.680222   61.826481
H   20.001568   89.039619   35.455566
H   53.421860   41.763592   62.337173
H    3.259492   90.996239   76.145378
H   89.188644   70.684189   19.179083
H   41.599991   70.363663   52.132935
H   71.004890   74.058533   11.070690
H   25.481756   54.618965   97.896683
H   57.465286   98.556252   59.803391
H   59.188770   56.056282   19.694412
H   34.439262   12.374931   14.374414
H   20.374628   84.884560   54.123650
H   38.737411   71.347313   95.459602
H   12.507674   44.623436   67.277008
H   87.800903   89.528130   17.976725
H   74.403900   96.473198    9.782722
H   41.989388   47.597717   28.485331
H   34.036373   55.984695   96.653282
H   87.397591   91.254448    8.049186
H   24.470413   37.696053   60.740440
H   44.942169   97.347374    7.030096
H   21.556204   50.312317   91.998146
H   18.067162   54.101345    9.826813
H   87.790779   75.934151   12.214362
