100
TIME:    5.276, STEP:  5276
H   60.527992   38.185188   94.315689
H   54.764656   90.761993   10.773810
H   70.447144   53.480347   61.415257
H   82.362167   15.279022   50.968285
H   47.914398   95.652176   22.650684
H   46.206829   95.492210    1.245726
H   76.454201   17.597820    3.043098
H    5.203102   45.042492   23.768818
H   23.933784   79.027451   67.982750
H   30.660154   92.138908   14.291136
H    9.494354   78.533951   31.538795
H   54.472420   88.149406   17.377592
H    7.394485   42.540657    0.771906
H   93.845284   88.813759   58.747086
H   44.675484   98.754227   97.159088
H   89.386780   50.270828   95.086639
H   99.842476   30.937168   53.683441
H   13.891414   38.105831   16.632502
H   27.443916   99.686188   41.321644
H   50.370796   93.772987   75.547249
H   51.191399   30.974915   14.044968
H   68.195602   51.087952   69.978149
H   15.301726   51.712852   81.397293
H   28.841190   99.944550   15.231135
H   40.883453   67.747482   75.504311
H   22.495337   70.687805   94.286865
H    7.123102   23.159409    4.649183
H   87.368263    2.705542   41.169762
H   25.892876   27.771757    7.773353
H    3.299160   60.258720    2.815874
H   23.698505   95.165024   91.958611
H   98.887215    6.743575   10.838264
H   41.991749   82.465309   73.100700
H    1.024463   90.208885   49.481224
H   49.624649   60.094955   45.999054
H   31.270880   98.667229    2.839215
H   85.835938   11.316677   24.193340
H   45.924519   62.403454   94.754829
H   22.370159   66.462029   33.028290
H   66.252281   18.261593   53.139774
H   74.674606   37.215012   66.645973
H   57.443657   48.648239   50.667591
H   56.686115   95.138550   82.564674
H   42.452724    1.200229   96.595749
H   99.002144   23.728310    7.591789
H   10.019222   63.548450    4.595397
H   82.953415   11.764466   76.110741
H   56.521183   49.711060   95.026939
H   19.253876   95.492126   34.011871
H   36.531307   11.035444   14.654411
H   43.142094   60.279800    9.044465
H   61.536079   74.166626   27.702263
H   18.311420   52.600769   96.446800
H   54.509315   21.119576   64.631676
H   20.712105   20.968119   45.223057
H    0.166947    6.983883   13.019318
H   30.727356   37.310143   57.778969
H   33.193253   78.634438   77.657333
H    6.384336   61.693024    6.441204
H   10.858047   33.319141   13.548592
H   92.514404   33.213940    3.038218
H   11.661268   78.833817   56.633583
H   32.247616   47.258591   71.679291
H    5.332558   70.503754   83.896393
H   41.736229   39.458744   86.899681
H   77.233025   79.987541   58.141624
H   64.265167   30.768154   21.787781
H   15.916554   19.277445   18.425909
H   19.856565   70.686623   29.330986
H   37.277359   13.509205   90.623383
H   54.496086   36.421417   98.857307
H   38.936798   76.424713   42.906021
H   62.986328   57.332184   26.471245
H   14.064785   15.501358   89.671959
H   16.548883   36.161953    1.354147
H   50.388039   45.715286   40.921490
H   45.981815   69.258492   84.357094
H   79.856400    5.735215    5.812442
H   14.517295   38.021450   76.548729
H   40.781059   21.609528   66.389130
H   14.114832   83.864304   95.323555
H   37.190659   78.683853   45.601952
H   51.594505   95.352722   32.403309
H   13.130713   63.637863   81.535736
H   95.431206   18.867424   36.303291
H   29.863987    2.849578    8.164672
H   19.526846   19.744751   75.123535
H   40.880753   82.885651   40.875496
H   65.175400    0.413518   85.039925
H   99.868805   92.205734   12.822372
H   39.938347   58.319134   44.881268
H   68.669472   92.285263   34.056267
H   23.655092   85.827034   27.005756
H   57.172424   33.261913   82.551765
H   65.372414   77.138054   37.322056
H   29.697586   87.388580   94.936478
H   43.818016   70.459541   33.761642
H   26.231451   61.159668   71.605904
H   57.376587   59.593060    3.115880
H   66.922302   43.242756   89.486710
