100
TIME:    5.130, STEP:  5130
H   70.401527   51.574165   94.449356
H   58.796944   82.851135    1.567975
H   67.936432   42.976349   63.129536
H   82.337662   21.294594   58.971596
H   49.222107   83.949631   26.608898
H   48.471371   95.650383   86.787346
H   84.106636    7.738995   91.625687
H   16.678413   32.412075   37.174503
H   27.522743   93.064713   77.172356
H   34.649925   90.042564    8.573530
H   23.074921   72.659286   45.601696
H   60.045219   80.831139   27.769644
H   16.711075   51.369362   15.279297
H    1.074396   89.263771   47.636017
H   42.899940   11.795329    4.177052
H   95.256989   63.040482    7.206022
H   11.583094   21.280842   40.392487
H   10.769454   45.209118   21.693468
H   25.169907   93.562012   33.630222
H   54.303947   96.874062   65.606880
H   59.855247   45.510086   18.007637
H   54.198441   50.894135   82.411407
H   17.251137   52.900261   85.574387
H   42.407146   98.197968   26.074333
H   46.105377   79.325272   74.426064
H   23.160887   75.003021    8.016302
H   19.712862   29.228447    1.752090
H   99.687904   95.890778   36.343269
H   22.718285   14.525885   14.674473
H   97.700943   63.872185   91.209236
H   17.952496   82.072342    3.509666
H   89.668648   10.777211   24.354225
H   31.707203   93.147530   59.947868
H   94.855682    3.588898   55.632133
H   53.253708   71.131393   37.109085
H   18.579756   87.232018    3.298416
H   71.832092   16.663914   12.689149
H   51.958469   65.075233   84.451332
H   28.533321   69.643303   47.176941
H   80.004387   31.929600   41.652210
H   84.652847   32.205841   63.206280
H   70.565300   42.095215   43.809361
H   55.428532   94.263031   72.018349
H   51.774883   98.749634   82.320114
H   11.666574   29.488243   95.098045
H   11.903091   60.763721    4.001832
H   81.812790    3.824162   74.709465
H   56.513386   48.207306   85.993279
H   14.986557    7.583899   39.836411
H   33.469219    8.813231   24.865456
H   43.153233   74.374985    7.505345
H   54.440590   87.713776   37.287300
H   15.282815   51.754211    4.926092
H   57.889977   23.502190   58.188927
H   32.337219    8.173232   43.981068
H   99.985001    7.137461   17.989502
H   21.472031   41.522881   43.893196
H   44.064835   92.422188   81.417831
H   94.869530   55.524292   17.649738
H   20.492245   22.096684   17.701180
H   83.304749   40.003109   14.421355
H   16.842535   80.192764   63.240074
H   22.335638   57.221237   81.690948
H   95.307167   69.708435   87.859619
H   35.940651   51.120075   73.303520
H   86.202080   87.245659   49.508965
H   75.978851   25.720554   14.738518
H   26.001732   10.927157   11.446265
H   12.579643   81.177254   38.488289
H   34.319977    6.165630   90.930817
H   59.132103   46.355103    0.608494
H   50.974625   81.270142   32.216003
H   72.505646   64.553627   30.215034
H   17.278362   24.741646   98.346947
H    9.509902   35.953655   90.286469
H   46.936089   36.357483   50.744900
H   32.725391   81.912300   81.775093
H   72.997055   15.281857   97.749428
H    7.516217   38.450298   74.920219
H   47.940338   29.562263   78.967194
H   11.257978   82.353867   86.597328
H   26.235535   77.730362   57.810204
H   42.359230   92.911072   18.498602
H    3.086195   51.144455   94.871246
H    2.540193   28.000221   50.456398
H   33.224598   97.487007   98.025833
H    9.775839   30.360138   68.161713
H   38.530441   94.574829   42.393730
H   62.145615    8.542391   86.234016
H   12.777390   98.211838    7.603501
H   33.963432   50.436123   41.798016
H   57.866947   81.304520   31.274878
H   14.296226   81.447212   15.715351
H   43.062149   24.404692   72.707191
H   67.896492   90.215141   33.967014
H   17.638596   93.154083    2.477612
H   55.406944   62.080853   42.158157
H   25.695669   59.916565   73.942848
H   64.331726   58.963711   15.345291
H   57.853748   46.988773    3.550918
