100
TIME:    4.933, STEP:  4933
H   83.724037   69.640114   94.629715
H   64.237770   72.176895   89.147156
H   64.548691   28.803314   65.441704
H   82.304596   29.411495   69.769783
H   50.986618   68.159210   31.949776
H   51.526951   95.863808   67.278526
H   94.432182   94.436768   76.220032
H   32.162224   15.369649   55.262997
H   32.365379   12.005627   89.572029
H   40.033638   87.213936    0.858821
H   41.399384   64.732513   64.576996
H   67.563972   70.956490   41.792320
H   29.282089   63.282066   34.854248
H   10.828406   89.870979   32.643684
H   40.504173   29.391684   13.646944
H    3.178018   80.270767   23.559120
H   27.424721    8.251191   22.458799
H    6.556882   54.793690   28.522306
H   22.101551   85.298569   23.252069
H   59.611008    1.058190   52.194191
H   71.545509   65.122528   23.354527
H   35.311859   50.632614   99.187790
H   19.881371   54.502449   91.210602
H   60.712070   95.841278   40.705643
H   53.151398   94.947357   72.971169
H   24.058924   80.825607   26.541414
H   36.700623   37.417988   97.843727
H   16.309879   86.695480   29.830812
H   18.434761   96.652641   23.986252
H   90.146912   68.747887   75.548073
H   10.199037   64.406189   19.095680
H   77.229897   16.219902   42.591515
H   17.830841    7.560909   42.200554
H   86.532120   21.642609   63.931648
H   58.150452   86.023026   25.113716
H    1.455296   71.802315    3.918050
H   52.937370   23.879021   97.166550
H   60.100170   68.679405   70.548668
H   36.849369   73.935844   66.267929
H   98.560310   50.372795   26.152151
H   98.116638   25.446890   58.565044
H   88.270531   33.253120   34.555447
H   53.731655   93.081680   57.788689
H   64.353455   95.443054   63.057861
H   28.754827   37.260208   78.240501
H   14.445024   57.006245    3.201019
H   80.273727   93.110619   72.818703
H   56.502865   46.178268   73.804024
H    9.228600   23.898869   47.695549
H   29.337498    5.814764   38.643372
H   43.168262   93.393829    5.428587
H   44.866539    5.993454   50.220535
H   11.196559   50.611938   16.367609
H   62.451553   26.717087   49.495628
H   48.022430   90.907722   42.305233
H   99.738510    7.344686   24.695847
H    8.983470   47.207191   25.156914
H   58.734024   11.026512   86.491928
H   79.331612   47.200729   32.773621
H   33.491611    6.954066   23.304329
H   70.878021   49.163837   29.780457
H   23.833696   82.026413   72.152939
H    8.961274   70.663986   95.199829
H   81.780251   68.635300   93.207260
H   28.120962   66.854614   54.958012
H   98.304161   97.039146   37.860786
H   91.784302   18.909752    5.226895
H   39.609810   99.660110    2.028526
H    2.760892   95.332420   50.844376
H   30.329222   96.257324   91.345642
H   65.387550   59.758774    2.971829
H   67.217743   87.808151   17.792542
H   85.350204   74.299019   35.266586
H   21.614491   37.209393   10.051716
H    0.011971   35.672596   75.352753
H   42.278320   23.731352   63.999775
H   14.839022   98.986275   78.291161
H   63.741634   28.163239   86.870781
H   98.069420   39.028950   72.722847
H   57.601562   40.291943   95.938965
H    7.403153   80.315811   74.822899
H   11.453736   76.443802   74.282982
H   29.897936   89.616516   99.737106
H   89.532394   34.286911   12.864177
H   12.132749   40.323242   69.553398
H   37.759121   90.251610   84.345612
H   96.618629   44.683640   58.768021
H   35.359131   10.346928   44.442307
H   58.057480   19.510721   87.845222
H   30.194868    6.317139    0.561434
H   25.901390   39.799458   37.637737
H   43.290943   66.488037   27.521910
H    1.668449   75.536613    0.481006
H   24.020760   12.455163   59.424274
H   71.302269    7.860842   29.440430
H    1.367140    0.933506   12.653234
H   71.044060   50.775356   53.487701
H   24.972731   58.239227   77.096123
H   73.716400   58.114521   31.846626
H   45.617901   52.043331   22.528677
