100
TIME:    0.786, STEP:   786
H   64.168373   49.941078   98.426407
H   79.406197   47.361423   27.580809
H   93.269012   30.451542   14.110939
H   81.608536    0.265854   97.079338
H   88.130920   35.758888   44.393059
H   15.828033    0.358192   56.586460
H   11.776785   14.411413   51.918995
H   58.108246   56.600063   36.026276
H   34.306618   10.722750   50.611877
H   53.360420   27.670303   38.469536
H   27.143219   97.869125   64.036980
H   25.840633   63.088814   36.980217
H   93.265198   14.153460   47.006607
H   16.163502    2.653849   17.054585
H   90.061897   99.816071   12.989544
H   69.920746   42.988163   67.795395
H   60.873314   33.976425   44.918312
H   17.940552   56.477509   72.297165
H   57.503571   11.325763    4.773381
H   71.373085   89.052551   69.810539
H   17.634186   77.968903   35.910614
H   37.714710   45.137367   52.329769
H   75.249794   88.229729    9.861090
H   46.013626   46.108585   48.700195
H    1.472787   23.838795   42.361908
H   43.054966    4.189954   15.501664
H   94.300934    9.803285   15.563452
H   66.219597   93.127014   92.754227
H   28.262009   20.404055   20.017540
H   31.131323   71.386337   45.873043
H   47.020756   92.527443   47.214287
H   15.385523   30.795845   26.500099
H   25.722221   10.974981   68.606041
H   11.312404    1.690594   38.637688
H   61.234566   99.504433   72.589569
H   40.894989   46.229687   17.939817
H   55.186024   75.750832   70.399055
H   31.503906   44.568157   77.906776
H   15.384201   63.729210   66.793350
H   89.160988   38.600536   99.874504
H   81.526901   83.150581   60.861332
H   60.979973   47.134834   39.727650
H   18.011114   68.213348   58.245766
H   29.167482   25.943678   57.583748
H   88.475731    0.880687   23.367807
H   67.912956   77.980034   86.400597
H   44.379505   68.142471   34.339546
H   56.281391    3.476028   17.211119
H   88.006218   67.351730   13.119618
H   42.374722   42.712818   28.691002
H   43.484653   93.759972   61.704334
H   43.330498   90.803986   22.462166
H   25.183855   26.566223   57.221436
H   58.488079   94.378914   66.500565
H   78.186752   27.409445    7.075827
H   94.549698   11.705896   65.869507
H   46.079979   66.867256   30.742683
H   67.531433    2.659281   93.309158
H   52.266251   71.978851   51.142384
H    7.151611   88.202118   41.253868
H    9.281858   42.017998   53.112122
H   71.014465   20.629379   59.792625
H   27.546463   53.554420   79.635353
H   97.012093   46.070129    5.798788
H   63.522026   98.067131   68.760689
H   53.060066    3.198750   92.660316
H   24.506624   75.535370    5.009840
H   26.071541   62.489365    3.777946
H   96.075340   93.309387   10.935057
H   46.308235   87.676903    0.077926
H   97.072365   41.923084   52.720585
H    9.158192   25.439857   14.168425
H   55.743301   79.427193   41.594822
H   12.890742   99.639374   56.494286
H    0.069010   29.762083   60.982105
H   44.241421   57.949013   43.041576
H   38.318607   58.420525    4.942108
H   68.908035   99.325661   57.849354
H   99.226189   51.200047   26.452637
H   60.978622   66.148659   53.206543
H   26.263287   37.413189   26.965649
H    0.296834   49.360733   21.053158
H   67.527824   20.376131    4.762527
H    4.238652   79.420631   91.637672
H   14.057554   99.718170   71.558601
H   33.202023   37.925564   96.365349
H   19.649893   46.204323   61.022610
H   68.608215   42.364815   87.570290
H   71.994331   50.408653   21.769638
H   96.843399   76.942520   52.311626
H   56.188908   15.873934   50.060619
H   36.442997   54.620628   48.498970
H   35.714622   51.180984   79.721794
H   23.197412   60.910797   79.814018
H   43.003117   79.324768   34.147026
H   58.841965   64.692741   26.851204
H    0.213758   12.787198   91.985260
H    9.751079   22.929993   43.459976
H   71.268852   40.238430   79.211678
H   88.054703   58.515789   21.982985
