100
TIME:    1.484, STEP:  1484
H   16.965609   85.931015   97.787369
H   59.990089   85.205467   71.610527
H    5.263343   80.669197    5.915149
H   81.725693   71.509117   58.821537
H   81.878998   91.706673   25.466881
H    5.004141   99.600365   25.710939
H   75.193001   61.545750    6.503575
H    3.246826   16.987301   71.938744
H   17.148445   43.612900    6.673936
H   34.285133   37.691399   65.804039
H   62.216965   25.954243   96.803345
H   99.198273   98.076149   87.296638
H   48.864517   71.923271   77.631004
H   81.602806    0.501871   70.174004
H   98.550453   37.469524   79.438522
H   41.856323   81.934990    9.856084
H    4.756129   80.136276    8.470408
H   32.856766   22.533936   48.098923
H   68.374687   40.609680   41.544758
H   52.535156   74.298691   17.370218
H   76.213974    8.479904   16.966347
H    4.643394   46.058647   92.894814
H   65.930489   82.552940   89.890488
H   81.161827   54.479984   96.858887
H   76.507805   68.479073   47.511490
H   39.854450   83.389999   50.076836
H   34.111549   80.789749   29.414602
H    7.326706   25.707806   15.825149
H   43.439163   83.732239   87.023338
H   57.896282   54.111008    1.362790
H   74.478096   55.122498   91.981567
H   59.457829   11.512561   61.882759
H   74.889359   59.905663   31.487394
H   40.804222   37.722908    9.233040
H   43.884682   46.741188   15.094376
H    1.582369    1.059216   15.537965
H   22.134258   50.189308   25.398565
H    2.656046   31.792721   27.163357
H   84.005600   48.828972   99.891876
H   23.417559   73.256721   54.792942
H   33.826080    7.102883   77.306931
H   98.247711   78.461220   72.520950
H   24.023397   72.399048    8.664680
H   84.596199   37.642021   25.832006
H   27.929867   73.338272   83.099808
H   58.941860   91.221809   89.197121
H   51.749744    5.793179   40.303902
H   56.318668   10.662569   60.399441
H    8.410855    9.545105   85.277023
H   57.014019   53.336826   79.871544
H   43.431400   26.373182   69.063919
H   77.252769   26.034597   76.640610
H   39.663391   30.613464   16.680801
H   42.325741   82.993385   97.302200
H   22.618423   88.600327   12.998911
H   95.423050   10.972334   42.107941
H   90.331207   46.726906   97.128090
H   15.555504   36.742516   75.330887
H    7.317565    1.470538   97.555542
H   61.088657   41.853512   21.401085
H   53.312756    9.559924   98.692192
H   46.241089   14.132109   28.208168
H   74.892380    5.955305   31.750099
H   44.943253   49.867081   86.849678
H   91.224419   42.319637   33.762966
H   10.180792   68.499031   33.931011
H   68.504440   99.669708   38.710522
H   77.855675    2.408082   37.146381
H   30.864548   43.155548   67.159920
H   60.446953   22.783583   98.608246
H   74.908394   94.428993   44.349186
H   51.603947    2.273937   65.274437
H   10.231865   44.900784   23.696430
H   97.529106   55.470161   15.010063
H   33.721733   30.755255   13.895065
H   60.744579    2.682590   96.075706
H    1.692120   97.923569   17.292639
H    1.701348   53.686485   96.394852
H   32.684875   49.155125   34.236351
H   26.747482   28.131788   93.073341
H   39.922726   44.634319   68.683861
H   52.669735   53.919205   62.686356
H   11.695186   32.025269   71.243561
H   52.256763   39.149395   27.882973
H   80.070709   56.060249    3.895356
H   17.135540   63.566967   44.836800
H   66.267723   95.454025   94.305847
H   79.844635   86.482086   80.317207
H   86.479195   11.545735   16.058235
H   35.132729   48.220688   77.266060
H   84.753914   53.562344   64.801102
H   88.087929    7.117254   61.796288
H   80.500542   72.095566   33.721695
H   90.661751    3.247693   26.877548
H   30.935711   16.801521   50.186882
H   16.493942   37.128899   90.798248
H   44.809158   52.844128   51.843018
H   12.313888   28.873047   32.292786
H   38.017570   43.247234   20.743633
H   31.402817   40.585445   54.755562
