100
TIME:    4.454, STEP:  4454
H   16.116528   13.566763   95.068253
H   77.466988   46.220276   58.945923
H   56.314903   94.343071   71.062294
H   82.224197   49.145927   96.023567
H   55.276978   29.765245   44.937790
H   58.956509   96.382744   19.840445
H   19.536594   62.094402   38.761608
H   69.810677   73.928925   99.241737
H   44.140114   58.059464   19.723169
H   53.123985   80.336205   82.103882
H   85.954803   45.458790   10.718018
H   85.843681   46.946556   75.888618
H   59.848160   92.247475   82.450195
H   34.544548   91.347389   96.190659
H   34.678932   72.178223   36.672459
H   22.438850   22.166069   63.320251
H   65.942940   76.567581   78.853539
H   96.315071   78.100517   45.127880
H   14.640930   65.206238   98.017487
H   72.517387   11.230425   19.581614
H   99.970055   12.807110   36.354729
H   89.389664   49.996735   39.979019
H   26.276711   58.398125    4.915233
H    5.216654   90.100403   76.280746
H   70.283600   32.935196   69.433632
H   26.242476   94.983063   71.583717
H   78.005974   57.331249   88.342079
H   56.725483   64.337372   13.996066
H    8.018792   53.193569   46.628761
H   71.779495   80.603020   37.468391
H   91.347786   21.454601   56.992638
H   46.985424   29.452774   86.934975
H   84.091286   42.606102   99.048447
H   66.293610   65.540222   84.111687
H   70.056747   22.232018   95.946793
H   59.816181   34.285419    5.425054
H    6.995918   41.421371   59.423084
H   79.899422   77.442848   36.747677
H   57.069607   84.373039   12.686697
H   43.676262   95.214378   88.465881
H   30.851856    9.012692   47.280010
H   31.320999   11.755263   12.054243
H   49.605747   90.209259   23.191263
H   94.941452   87.413849   16.223616
H   70.303307   56.157524   37.251850
H   20.624981   47.870045    1.253823
H   76.531540   67.061485   68.221367
H   56.477283   41.244720   44.166191
H   95.226791   63.568249   66.804291
H   19.291332   98.524818   72.144875
H   43.204807   39.638863    0.379009
H   21.588320   50.441845   81.665283
H    1.260695   47.834534   44.188137
H   73.546043   34.534019   28.358433
H   86.160583   48.926365   38.230488
H   99.139175    7.848547   41.002136
H   78.615555   61.028435   79.599861
H   94.401749   56.262413   98.829453
H   41.553772   26.961765   69.548103
H   65.099335   70.138214   36.928230
H   40.662781   71.439110   67.125893
H   40.833458   86.484879   93.824005
H   76.443184    3.349757   28.046318
H   48.888252   66.026001    6.211643
H    9.108529    5.110012   10.350543
H   27.728706   20.851143    9.538739
H   30.216177    2.350073   82.100998
H   72.697472   72.266129   79.129555
H   78.889481   29.750290   80.885803
H   20.624750   72.166992   92.354279
H   80.597496   92.349426    8.718140
H    6.714949    3.705258   82.723198
H   16.582273   97.994667   47.549294
H   32.159664   67.522881   38.511986
H   76.915657   34.989208   39.041836
H   30.953089   93.032188   96.232285
H   71.350021   40.503345   69.820076
H   41.237347   59.485561   60.419159
H   75.097359   40.435925   67.379997
H   81.092560   66.380943   37.205070
H   98.030563   75.360336   46.193707
H   75.514687   73.315567   14.336718
H   99.598808   81.605896   54.121098
H   56.577118   93.297188   56.612022
H   35.457047   70.285561   15.986924
H   48.784687   72.658943   51.082535
H   64.627312   79.510834   35.927521
H   27.649210   48.696144   49.423363
H   48.117294   46.180260   91.762825
H   72.545822   26.025749   83.436615
H    6.298719   13.935425   27.522135
H    7.848008   30.464188   18.395670
H   70.963570   61.160614   63.439190
H   77.724167   83.401169   27.129358
H   79.583321   50.768089   18.434963
H   61.803726   19.847862   37.394188
H    9.065053   23.286358   81.035172
H   23.214926   54.160828   84.763222
H   96.534973   56.049740   71.968437
H   15.866774   64.333443   68.673050
