100
TIME:    5.150, STEP:  5150
H   69.048988   49.740059   94.431046
H   58.244576   83.934814    2.829047
H   68.280365   44.415253   62.894703
H   82.341019   20.470543   57.875252
H   49.042969   85.552719   26.066677
H   48.161160   95.628716   88.767937
H   83.058357    9.089516   93.189713
H   15.106453   34.142269   35.338108
H   27.031105   91.141800   75.913506
H   34.103355   90.329735    9.356764
H   21.214569   73.464035   43.675274
H   59.281822   81.833641   26.346075
H   15.434830   50.159950   13.291992
H    0.084144   89.202126   49.158081
H   43.143166   10.008868    3.215645
H   94.452850   61.291214    5.545809
H    9.974779   22.603626   42.213165
H   11.197120   44.236065   21.000185
H   25.481415   94.400940   34.683842
H   53.765160   96.449257   66.968575
H   58.668419   43.518967   17.464806
H   56.115860   50.920685   80.708221
H   16.984108   52.737602   85.002182
H   40.548779   98.437225   24.588966
H   45.390045   77.739273   74.573769
H   23.069715   74.411896    6.135599
H   17.988237   28.397072    2.148952
H   98.000282   96.824310   37.004433
H   23.153160   16.340414   13.729115
H   98.467850   63.377190   92.799202
H   18.739620   83.865860    1.927330
H   90.931465   10.224652   22.502724
H   33.116032   91.684212   61.749626
H   95.700714    1.756041   54.789543
H   52.756577   69.619553   38.326889
H   20.318266   88.798485    3.235512
H   73.750427   15.931416   14.265038
H   51.131901   64.709328   85.862770
H   27.689053   69.207512   45.238770
H   78.120537   30.057270   43.225849
H   83.285965   32.892029   63.677471
H   68.767815   42.992889   44.748844
H   55.600803   94.382965   73.463051
H   50.497875   99.085327   84.275681
H    9.931726   28.699211   96.809471
H   11.645027   61.145191    4.083142
H   81.969040    4.911867   74.901421
H   56.514454   48.413300   87.230766
H   15.571121    5.927538   39.038528
H   33.888683    9.117643   23.466682
H   43.151707   72.444138    7.716183
H   55.412575   85.858002   35.974281
H   15.697663   51.870178    3.764515
H   57.426872   23.175804   59.071495
H   30.744751    9.925971   44.151203
H    0.009981    7.116423   17.308655
H   22.739883   40.945793   45.795357
H   42.575577   90.533455   80.902695
H   96.446983   56.369324   16.114323
H   19.172512   23.634007   17.132332
H   84.566345   39.073086   12.862021
H   16.132772   80.006607   62.335075
H   23.693441   55.856491   80.319489
H   96.680458   69.817383   87.316711
H   36.734566   49.522633   75.166008
H   84.973442   86.251396   50.691521
H   74.374237   26.412006   15.704170
H   24.620201   12.071033   12.402381
H   13.576462   79.740181   37.233864
H   34.725098    7.171585   90.888702
H   58.497032   44.994324    0.368563
H   49.325607   80.606384   33.680389
H   71.201630   63.564316   29.702187
H   16.838146   23.475853   97.158592
H   10.474143   35.982189   91.802582
H   47.408958   37.639374   49.399227
H   34.541340   80.178902   82.128792
H   73.936691   13.974102   98.853859
H    8.475261   38.391552   75.143303
H   46.959503   28.473015   77.244171
H   11.649328   82.560776   87.792702
H   27.736237   77.860977   56.137840
H   43.624336   93.245544   20.403357
H    4.462156   52.855881   93.044464
H    1.566329   26.749153   48.517616
H   32.764240   98.221565   99.414688
H   11.111593   28.905975   69.115387
H   38.852402   92.973572   42.185753
H   62.560654    7.428843   86.070442
H   11.009088   97.389084    8.318424
H   34.781914   51.515987   42.220379
H   59.346745   82.808731   31.655890
H   15.578231   82.047188   17.261982
H   44.995285   25.617842   74.055763
H   67.550728   88.423759   34.426609
H   19.290512   92.364288    1.444553
H   53.819420   63.228619   41.007950
H   25.769064   60.086853   73.622719
H   63.378967   59.049923   13.670029
H   59.095966   46.475620    1.624228
