100
TIME:    7.487, STEP:  7487
H   11.007223   35.426888   92.291458
H   93.704575   10.572568   50.185230
H    8.465631   12.548850   35.454494
H   82.733276   24.186501   29.774323
H   28.109015   72.873405   62.701828
H   11.913486   93.096870   20.208485
H   60.574902   66.896988   75.946304
H   31.422859   36.322376   20.761963
H   69.583122   66.448853   28.806496
H   70.263130   23.887224    0.864152
H    3.832520   67.498291   18.564112
H   70.084869   98.975449   59.996117
H   66.328575    8.807966   81.068916
H   84.370003   81.998848   27.004017
H   71.543098    1.257087   90.852814
H    0.486449   56.888611   11.554338
H   22.047218   77.177109   54.959499
H   61.173885   30.521439   39.988724
H   61.873829   92.441162   57.804592
H   90.805191   46.817005   26.082346
H   19.987518   10.862289   54.031315
H   80.166321   54.023087   81.691086
H   85.779961   33.730934   18.138227
H   23.407335   26.394503   51.024605
H   61.806099   92.403015   91.833107
H   12.305492    5.385990   86.322655
H   16.466169   31.250666   48.523457
H    0.810998    5.907539   14.252236
H   73.968361   28.370962    3.258268
H   88.078461    5.536203   78.583794
H   10.715226   93.429672   17.031395
H   38.490932   45.652241    6.154949
H   97.730598   20.697680   72.285042
H   94.444847   87.583900   56.335617
H   94.624779   92.799095   80.567230
H   23.469677   71.842697   95.887917
H   97.900070   30.346140   98.411774
H   54.539490   21.935703   50.777328
H   29.043331   18.287733   18.766361
H   58.000969   11.275121   27.095720
H   23.567915   13.081250   18.734953
H   69.250343   70.963425   62.183064
H   75.720367    8.400175   42.267071
H    1.274439   38.311485   12.774941
H    7.214394   36.493130   96.792427
H   81.481071    5.718990   13.578020
H    0.226990   32.007332   97.331429
H   56.644588   72.483658   31.830654
H   83.882637   12.377293   45.815231
H   82.930908   44.690365   60.042328
H   42.987499   46.822235   32.349808
H   68.996735   69.001526   82.561768
H   64.177055   65.420898   68.036751
H    3.313141   85.046509   62.196854
H   44.669144   14.729514   64.031509
H    2.920809    4.658126   37.751648
H   70.894119   73.512138   68.063438
H   68.558273   69.832573   20.707296
H   80.757378   55.120686   36.708916
H   64.952614    3.262945   50.662498
H   31.986826   30.391872   30.650589
H   33.189674   58.254135   56.592575
H   82.353386   96.383209   20.064392
H   57.159634   82.547928   23.866665
H   29.493946   62.871197   92.800331
H   41.409088   70.072411   88.873718
H   86.872162    7.208409   28.535170
H   63.187447   45.727287   24.124496
H   30.053062   11.818253   90.660736
H   82.081841   24.697451   85.963791
H   84.285927   85.986435   72.339882
H   56.730419    3.001525    4.840919
H   18.824789   47.974194   69.784973
H   65.386818   75.566467   58.301300
H   23.127275   39.339397   68.971085
H    2.652028   87.419456   92.149513
H   46.762409   77.782051   23.524137
H   83.733200   61.164974   27.918436
H   20.542700   31.527042    1.211253
H   32.354935    1.166587   75.909492
H   57.385338    6.738809   27.470657
H    3.115655   93.024963   60.640865
H   91.444221   32.327183   42.967552
H   65.241753   52.838131   79.595146
H   87.775146   80.563866   21.971960
H   78.978745   84.064651   61.703217
H   67.194588   58.986580   80.552361
H   76.440575    5.956339   17.949379
H   11.059632   77.308235   66.956795
H    4.386893    1.238651   91.859543
H   30.421619   77.707329   91.573532
H   32.261082   58.573212   76.182014
H   65.384628   52.167545   97.985786
H   70.855141   67.400475   31.635653
H   27.147114   79.090042   88.130249
H   12.317138    0.079213   80.735527
H   68.319511   97.343491    6.604293
H   23.825678   56.914829   28.580526
H   52.049583   69.132881   17.922199
H    4.258560   86.505203   76.494247
