100
TIME:    1.008, STEP:  1008
H   49.155190   29.582497   98.223160
H   73.230873   59.398731   41.584530
H   97.083282   46.423290   11.504295
H   81.645798   91.119713   84.911613
H   86.142487   53.553169   38.373558
H   12.385536    0.116585   78.571587
H    0.142024   29.402533   69.279686
H   40.659485   75.806259   15.642296
H   28.849434   89.378220   36.636948
H   47.293495   30.857048   47.163429
H    6.493317    6.801635   42.653694
H   17.366924   74.216591   21.178339
H   79.142914    0.721813   24.942171
H    5.171640    1.969374   33.949497
H   92.761696   79.985931    2.317819
H   60.994812   23.569599   49.367661
H   43.024834   48.657639   65.131233
H   22.684677   45.681702   64.600876
H   60.960464   20.639559   16.468615
H   65.363747   84.398193   84.955833
H    4.460445   55.868546   29.885735
H   59.001453   45.430382   33.426098
H   72.285774   86.424217    3.509195
H   25.387436   48.771122   32.211777
H   93.532707    6.232517   43.999741
H   42.037037   97.574997   94.693436
H   75.158447    0.574736   19.968832
H   47.488487    3.489307    0.091452
H   33.089127   40.545353    9.524063
H   39.643902   65.891891   63.521664
H   55.753605   12.435934   29.647079
H   29.402777   24.662865    5.948454
H   41.360050   94.732628   88.605553
H   20.692467   81.345589   29.285181
H   55.716408   82.723000   86.108887
H   60.196686   63.668285   17.175947
H   76.478844   67.620949   87.891853
H   22.328995   40.504910   93.573738
H    5.403555   58.990166   45.515297
H   68.250252   17.817408   17.341047
H   66.354507   90.768959   66.092575
H   41.027885   57.099022   50.157612
H   19.923330   69.544617   74.281349
H   14.991846   29.663946   79.290535
H   69.218071   92.120865   42.365944
H   65.077660   82.153374   87.271172
H   46.723621   80.117111   36.236519
H   56.293247    5.761735   30.947233
H   94.496574   48.966034    4.263551
H   47.030773   46.091801   13.164619
H   43.467716   72.327568   64.045059
H   54.119530   70.204895    7.887659
H   29.789095   27.853455   44.327103
H   53.347622   90.757729   76.297073
H   60.514084   46.871845    8.959673
H   94.827469   11.472586   58.312103
H   60.153145   60.461586   51.856667
H   51.000671   81.694359   87.591141
H   69.774849   81.358704   34.098423
H   92.501587    5.265227   34.939659
H   23.286226   31.694740   35.803940
H   63.135254   18.563034   49.747139
H   42.605125   38.415901   64.405373
H   12.256392   47.277756   99.770882
H   72.332878   80.337212   89.434303
H   39.422188   92.162483    5.786506
H    6.694559   83.211334   15.728523
H   10.736403   75.185532   14.390830
H    7.139681   77.357880   97.011604
H   50.805077   98.841942   99.610565
H   90.023079   26.817038   50.058048
H   90.853043   18.072151   30.422262
H   41.268723   68.445076   35.902210
H    8.004767   85.591614   43.300163
H   10.772233   30.077963   77.810966
H   49.490276   72.177025   28.104389
H   58.475636   39.179802    8.870281
H   79.337997   84.810432   70.109390
H    9.867586   50.549656   28.928017
H   50.091354   54.057449   34.080994
H   30.607693   39.709881   40.233974
H   16.953796   50.810562    2.488770
H   81.575584   24.081156   25.906773
H   19.510702   98.417458   71.360390
H    3.247688   85.833008   50.038124
H   28.092052   46.080853   11.781935
H   34.476768   30.063118   71.608398
H   72.181976   24.591213   85.263435
H   76.601265   38.047844   19.953117
H   77.216507   67.806564   60.248425
H   65.274055   27.861277   54.748852
H   52.868748   71.317375   52.728203
H   49.958855   57.832245   96.896172
H   44.655220   74.376305   94.783165
H   39.165134   59.440041   39.248528
H   77.178238   55.926018   15.384659
H   82.592239   25.527296   79.217957
H   10.566184   24.820190   39.908234
H   60.693230   41.195385   60.614880
H    1.841643   52.813015    0.600795
