100
TIME:    9.933, STEP:  9933
H   45.593414   11.118604   90.052078
H   26.150757   43.119503    4.411730
H   50.509991   88.524086    6.741152
H   83.143829   23.411367   95.700455
H    6.191084   68.930740   96.382256
H   73.988892   90.446938   62.444969
H   32.381931   32.062035   67.226715
H   39.172089   47.932049   96.178108
H    9.455772   31.274567   74.841377
H    3.450985   59.008167   96.637856
H   76.311493   65.916916   82.949715
H   76.727257   21.579834   85.887566
H   10.355207   60.756462   37.993729
H   63.258728   74.459602   13.145206
H    1.252392   82.768311   73.220726
H    2.137587   42.952499    8.514779
H   25.354347   38.961159   77.628525
H   13.478644   11.499056   55.198792
H   99.979568   95.053543   86.682037
H   24.903851   94.874481   92.617455
H   74.837921   67.357430   87.643295
H   14.666733   57.270187   73.391586
H   53.121964   13.843477   48.176872
H   96.138702   55.655731   69.364410
H   74.323593   98.423065    9.892521
H    0.769332   33.278671   56.142971
H    5.544895   29.573263   97.049301
H   94.424294   20.078571   95.103386
H   27.154766   50.291294   87.634262
H   81.868721   44.997879   73.033699
H    6.980770   12.767475   23.511749
H   92.933121   78.072067   79.716530
H   70.025673   41.736465   92.640038
H   97.794403   63.422508   53.289574
H   33.750969    7.602460   29.384909
H   36.095615   63.430988   88.199379
H   32.503250   40.767830   91.146988
H   53.441257   77.177849   23.385544
H   25.796337   64.993675   81.731163
H   27.616203   82.288712   19.542040
H   56.401093   97.009354   76.361656
H   63.114487   80.560898   87.046867
H   96.770538   23.075027   18.943943
H   45.096897   79.374245   51.928410
H   95.014160   39.956425    6.090829
H   49.914146   52.367596   23.515268
H   19.350468   65.033264   20.819010
H   56.793880   97.676682   83.174942
H   55.379395    9.802252   48.222870
H   34.276344   81.929039   89.017647
H   46.590702   10.959511   52.344238
H   87.872528   42.030540   21.996161
H   14.903049   79.603638   25.978828
H   46.663643   45.139404   70.132210
H   49.914864   29.085180   84.820419
H    5.967299    2.085172   54.484024
H   25.961258    2.933653    0.698307
H   86.424515   38.838097   57.704124
H   73.676079   58.477516   48.929050
H    3.544222   91.271133   81.092445
H   86.285431   16.641031   39.948338
H   46.376335   35.487106   45.919350
H   48.440022   29.518278   52.355942
H   25.121048   95.872238   57.461357
H   26.580044   67.511543   20.585546
H   91.150269   48.474693   33.501339
H   90.624886   91.772064   46.627819
H   94.225365   85.615913   41.057449
H   51.962631   36.064301   37.252636
H   31.759033   47.552174   80.775894
H    6.605507   19.554180   43.004005
H   55.307930   21.786522   84.130280
H   59.342361   26.983435    7.065266
H   11.547916   20.761105   12.968699
H   40.952751   42.941067   54.428303
H   60.483124   44.185261   27.564781
H   68.911079   66.074875   66.909050
H   98.642433    1.235372   63.014137
H   37.836472   24.342365   28.510515
H   12.402196   67.921608   65.184425
H    5.270250   32.043804   73.665321
H   86.659996    8.896516   56.008202
H   46.157867   73.233192   75.912155
H   33.523876   62.147659   56.190529
H   68.677460   27.551369   84.861404
H   22.681965   73.911079   31.561008
H   30.557528   81.141823   97.186852
H   15.777527   10.229056   92.593796
H   61.822758   41.118294   46.951668
H   88.128235    0.603860   79.296432
H   30.522604    9.783849   43.228905
H   13.240313   42.535675   22.789621
H   22.177814   25.554014   87.138725
H    3.476650   15.510812    2.360241
H   84.854584   59.992950   44.334694
H   14.346709    3.489559   54.396591
H   74.167595   37.712097   65.932098
H   19.104319   77.944687   79.468895
H   35.527672   79.695290   13.044193
H   56.187103   23.738667   40.862774
