100
TIME:    2.995, STEP:  2995
H   14.782829   47.364525   96.404007
H   17.958946   67.130432   66.923691
H   31.236113   89.376709   88.182213
H   81.979309    9.255728   75.997864
H   68.345108   12.819959   84.498383
H   81.577766   97.963387   75.351280
H   96.002968   63.575798   24.665840
H   84.485199   47.706928   33.203060
H   80.005119   98.336243   11.561953
H   92.996254   59.387123   24.970514
H   21.667419   86.752991   51.255451
H   41.530647   73.814606   79.741890
H   52.749588   80.505630   27.450592
H    6.786344   95.844429   85.160820
H   16.930935    2.502130    6.804607
H   81.101639   49.775482   84.430031
H   83.267006   80.066269   46.035015
H   65.146324   49.053856   95.712097
H   91.914894    3.995607   21.151026
H   11.829735   42.212528   20.246119
H   86.549179   58.056458   75.952072
H   49.513916   48.059891   64.226364
H   45.756462   70.264076   46.660431
H   40.773575   72.602020   84.638939
H   22.465488   48.641464   58.659081
H   32.926113   38.368137    8.450397
H    3.816226   17.977961   59.398968
H   79.832146   96.236198   65.772911
H   76.294006   20.821806   15.597082
H   15.835250   16.714127   21.482346
H   33.926777   90.623123   72.424080
H   54.863289   69.760750   22.001884
H   81.321625   49.353569   67.610207
H    4.646588   99.248970   45.575897
H    6.323146   32.521210    7.103988
H   32.958340   19.757372   10.344594
H   67.057625   94.851547   44.459530
H   40.202034    4.137214   33.790188
H   18.651924   16.161161   54.074341
H   81.097565   31.801119   73.675392
H   30.564257   58.947109   12.906850
H   62.447624   46.276360   43.508392
H   37.038525   81.460068   17.805908
H   88.108505   62.969070   73.568565
H   96.861809   13.724991   12.401038
H   39.447987   20.041828   95.330025
H   65.133102   87.715546   54.210434
H   56.399364   26.219625   53.891548
H   52.574684   84.403618   25.001768
H   88.695549   76.329033   74.189606
H   43.316120   80.495407   84.995636
H   50.683720   85.825699   77.446220
H   71.005486   39.374756   28.924023
H    7.338215   58.343842   63.977509
H    2.326369   21.058121   25.821875
H   97.313644    9.384350   90.669937
H   86.121788    3.127115   40.836937
H    3.042655   94.046524   36.412308
H   26.486168   65.314819   81.555885
H   61.378326   57.994686   78.425667
H   48.627846   39.290379   80.881760
H   92.616203    0.065060   59.842087
H   77.391579    2.909321   28.094345
H   48.701233   58.086555   45.827892
H   51.200062   21.638020   74.480324
H   17.357430   93.382607   23.272141
H   47.274330   51.906078   11.660605
H   73.480583   88.823975    9.380919
H    6.171407   34.584724   72.392311
H   91.064026   98.781807   95.426514
H   26.928185   91.619591   26.222088
H   27.016012   52.126938   75.902344
H   11.711748   70.160057   84.955315
H   64.282310   59.851181   25.206795
H    6.573349   32.907658   28.439674
H   96.459419   99.523552   94.404419
H   38.881504   66.961075   44.017750
H   72.690872   54.885845   79.843018
H    5.135083   44.721470   51.097237
H   52.644936   45.840275   62.899277
H   69.489944   60.266308   58.992771
H   66.043488   63.787186   36.337868
H    7.292536   57.248566   15.158712
H   56.200542   68.447601   89.870087
H    6.497261   61.546894   57.420753
H   82.361694   19.064941   49.765148
H   67.183998   85.592018   66.356461
H    4.167761   65.507462   64.595741
H   17.837593   27.415026    3.696806
H    1.539738   86.052689   31.282310
H   46.590363   35.153347   96.710648
H   99.890747   20.747133   90.592384
H   77.439957   17.381262   50.612389
H   36.706074   94.901314   28.756500
H    4.807641   81.455902   84.909264
H   41.296326   77.462227   12.753466
H   24.873192   39.557354   64.944405
H   17.860777   41.738312    8.113783
H   66.038567   49.760563   94.173576
H   25.242182    1.778622    9.221337
