100
TIME:    0.825, STEP:   825
H   61.530922   46.364571   98.390701
H   78.321342   49.476086   30.040922
H   93.939087   33.257320   13.653015
H   81.615082   98.659081   94.941765
H   87.781601   38.884911   43.335579
H   15.223270    0.315748   60.448910
H    9.732864   17.044950   54.968845
H   55.042923   59.973942   32.445305
H   33.347923    6.972996   48.156822
H   52.294609   28.230137   39.996841
H   23.515533   99.438385   60.280457
H   24.352009   65.043694   34.204109
H   90.784256   11.793842   43.130470
H   14.232494    2.533603   20.022610
H   90.536186   96.332397   11.114779
H   68.352676   39.576794   64.558090
H   57.737770   36.555557   48.469231
H   18.773979   54.580948   70.945114
H   58.110863   12.961970    6.827976
H   70.317390   88.234894   72.471199
H   15.319870   74.086517   34.852242
H   41.454273   45.188843   49.008854
H   74.729088   87.912544    8.745216
H   42.390106   46.576328   45.803581
H    0.077990   20.745800   42.649635
H   42.876141    3.027939   11.846232
H   90.938065    8.182029   16.337370
H   62.928833   94.947403   94.043198
H   29.110016   23.942327   18.174091
H   32.626705   70.421097   48.973476
H   48.554905   96.024803   44.128136
H   17.847998   29.718430   22.889671
H   28.469318    8.121660   72.119469
H   12.960290   98.116493   36.994637
H   60.265160   96.556343   74.964584
H   44.285828   49.293224   17.805624
H   58.926479   74.322609   73.472115
H   29.892097   43.854343   80.659081
H   13.630835   62.896675   63.055496
H   85.487480   34.949345    2.942949
H   78.861481   84.488945   61.780453
H   57.474876   48.885300   41.559940
H   18.347044   68.447220   61.062637
H   26.677168   26.597239   61.397102
H   85.092628   99.341904   26.705236
H   67.414864   78.713188   86.553535
H   44.791309   70.246124   34.672798
H   56.283474    3.877586   19.624220
H   89.146416   64.121567   11.563823
H   43.192677   43.306423   25.963394
H   43.481678   89.994820   62.115543
H   45.225868   87.185226   19.901779
H   25.992884   26.792358   54.956215
H   57.585026   93.742760   68.221573
H   75.082153   30.828402    7.406773
H   94.598495   11.664909   64.541855
H   48.552292   65.741936   34.451897
H   64.627380   98.976265   92.304642
H   55.341988   73.626663   48.148174
H    4.578095   91.199600   40.144615
H   11.742046   40.204453   50.071495
H   69.630280   20.266373   58.027878
H   30.191799   50.894951   76.959816
H   99.690010   46.282280    4.739820
H   65.069954   94.952415   72.392540
H   50.664223    1.259972   94.966301
H   21.377478   76.883850    6.892825
H   23.377556   64.719772    5.642371
H   98.018913   90.507095    8.489002
H   47.098221   89.638329   99.995911
H   95.833977   39.269268   52.252842
H    5.942533   24.145531   17.023829
H   53.200470   77.497902   40.594769
H   12.032395   97.171524   54.176399
H    1.949308   29.817575   63.938526
H   45.163517   60.448700   40.417515
H   41.859707   55.040398    5.632193
H   70.740326   96.775688   60.003292
H    1.095525   51.085789   26.887501
H   59.065994   64.024773   49.846649
H   27.026493   37.816662   29.296478
H    3.223067   49.615433   17.791901
H   69.995674   21.027014    8.477022
H    6.921591   82.757912   88.075447
H   12.158539   97.278885   67.777977
H   32.304325   39.358250   99.073616
H   22.254614   43.368706   62.882275
H   69.236038   39.242363   87.165031
H   72.803658   48.237160   21.450520
H   93.395432   75.337555   53.705929
H   57.784946   17.979818   50.884228
H   39.328602   57.553841   49.241943
H   38.216988   52.349449   82.738914
H   26.967028   63.276588   82.443733
H   42.328876   75.831573   35.043236
H   62.063202   63.152641   24.836815
H   97.118088   15.025268   89.742355
H    9.894273   23.262054   42.836021
H   69.410973   40.406544   75.944618
H   90.476730   57.513950   18.226610
