100
TIME:    9.737, STEP:  9737
H   58.848297   29.092201   90.231522
H   31.563217   32.497952   92.053764
H   47.140942   74.422829    9.042139
H   83.110931   31.487066    6.443727
H    7.947386   53.220474    1.696635
H   77.027466   90.659279   43.033684
H   42.653568   18.826593   51.899258
H   54.577301   30.976147   14.174171
H   14.273827   50.119141   87.178108
H    8.805117   56.193897   88.963661
H   94.542938   58.030380    1.830091
H   84.207054   11.755896   99.839287
H   22.853607   72.620247   57.470810
H   72.963623   75.063728   98.229179
H   98.871590    0.275997   82.647484
H   10.018772   60.095322   24.784885
H   41.115456   25.997871   59.785873
H    9.287147   21.036293   61.992218
H   96.926041   86.832047   76.349091
H   30.183971   99.037567   79.272850
H   86.468842   86.868904   92.963791
H   95.876022   57.009995   90.082809
H   55.739220   15.439472   53.763855
H   14.349812   53.311005   83.920258
H   81.333847   13.967201    8.445759
H    1.693933   39.056747   74.587395
H   22.446217   37.721264   93.161362
H   10.962244   10.929952   88.625481
H   22.892986   32.508457   96.899521
H   74.353035   49.848831   57.452034
H   99.266685   95.191742   39.018646
H   80.557510   83.488266   97.861244
H   56.219658   56.076981   74.982811
H   89.513092   81.384789   61.546959
H   38.628838   22.442421   17.459402
H   19.058035   48.078114   88.815468
H   13.704335   47.945564   75.702896
H   61.541630   80.763725    9.554946
H   34.070171   69.264427    0.725215
H   46.076618    0.636834    4.121125
H   69.796539   90.283218   71.743980
H   79.632332   79.789291   77.045891
H   95.083771   21.898926    4.787060
H   57.611576   76.084450   32.765354
H   12.031439   47.714359   89.328323
H   52.442802   48.629192   22.718988
H   17.817722   54.372974   18.937098
H   56.781918   95.657944   71.047562
H   49.650566   26.032101   56.062721
H   30.162603   78.944298    2.721328
H   45.499088   29.799568   51.976379
H   78.347076   60.218620   34.862831
H   10.837536   78.467163   37.362617
H   51.202065   48.337982   61.483040
H   65.520454   11.908624   83.154587
H    5.723181    2.291345   61.156326
H   13.536226    8.589315   82.057121
H    1.019213   57.347679   62.752464
H   58.217037   50.194710   63.976871
H   16.477962   76.206863   86.667152
H   73.921783   25.756006   55.229435
H   53.332756   37.311447   54.788338
H   35.117847   42.867508   65.784286
H   11.661928   94.804550   62.783348
H   18.800426   83.164986    2.332640
H    3.190773   58.218468   21.912287
H    6.350388   84.995087   37.165173
H    7.764573   74.406685   31.687515
H   42.193436   50.147614   49.546001
H   27.778381   37.708210   81.191605
H   12.830280   32.891308   45.354713
H   71.448051   28.294334   69.762848
H   72.121719   36.678249   12.091175
H   15.862034   33.165806   24.613825
H   31.511080   42.652462   39.567402
H   55.848999   31.622753   40.752625
H   51.110298   83.038254   63.433586
H   89.433998   14.050697   52.189217
H   28.438124   24.918079   26.322802
H   22.013771   78.598488   82.070045
H    1.433520   30.016092   61.950661
H   71.951622    7.624019   72.405602
H   33.759827   69.955360   57.246517
H   20.039539   45.375687   74.092339
H   78.220856   39.811836    3.861388
H   27.193470   66.712410   17.950230
H   17.467134   95.392616   87.840843
H   12.625679   25.913015   94.624496
H   57.755375   52.031441   48.554695
H    5.456817    8.668343   72.289169
H   22.501486   99.200745   39.089745
H   98.738297   27.794615   19.055704
H    9.613978   19.672758   71.981743
H   85.640053    3.702756   87.445580
H   88.243073   77.548836   39.830666
H   98.157837   11.229073   64.520187
H   89.725334   26.464355   77.204132
H   19.482645   68.245773   83.404686
H   44.864708   78.848915   29.461765
H   44.013367   28.768314   59.744701
