100
TIME:    2.422, STEP:  2422
H   53.532135   99.911674   96.928604
H   33.897957   36.061607   30.778952
H   21.386801   48.152115   94.905800
H   81.883133   32.864708    7.404428
H   73.477417   66.891495    0.035197
H   90.460945   98.584160   18.604372
H   26.033817   24.882385   79.856407
H   29.521873   98.136414   85.813972
H   94.090553   53.427994   47.631275
H    8.654268   51.159691    2.530987
H   74.966492   63.696949    6.450537
H   63.401978   45.092911   20.528303
H   89.198997   15.173214   84.401726
H   35.157951   97.610573   41.555805
H    9.960350   53.684296   34.348671
H    4.140530   99.891998   31.994886
H   29.342255   42.167732   93.870728
H   52.901764   76.918709   15.578560
H   82.987999   79.959671   90.963409
H   27.266006   54.378811   81.233681
H   20.551712   15.099216   91.506378
H   94.579849   47.299225   13.022568
H   53.406837   74.924248   63.054092
H   94.011444   65.729797   27.194977
H   42.958733   94.087585   54.431702
H   35.553471   55.439404   62.156837
H   53.227661   41.797756   48.028324
H   28.180880   69.490486   46.830990
H   63.834824   68.834785   42.682457
H   93.864204   30.895737   75.930779
H   11.377637   39.239834   17.759449
H   18.683571   85.594841   75.047401
H   40.960117   91.277626   15.989842
H   80.436211   51.760880   69.716110
H   20.567467   75.835449   72.210411
H   83.137711   74.745903   12.314019
H   12.100667   15.837038   99.309570
H   63.883224   14.624584   93.355812
H   42.840225   28.644388    9.602636
H   35.068302   85.443794   28.591738
H   69.723076   39.287830   99.405807
H   13.945648   20.557983   16.589067
H   32.102940   78.023956   76.416405
H   24.697802   53.364571   17.544649
H   46.564701   36.330868   63.368141
H   46.840435    9.112720   93.004311
H   60.653278   56.554474   48.706535
H   56.368763   20.320093   18.437523
H   35.826920   31.859310   47.860420
H   76.682274   67.611977   14.267353
H   43.359837   35.815422   78.954025
H   22.837072   38.995594   15.061497
H   59.121567   36.052307   62.205139
H   20.606152   67.693062   38.691925
H   47.945480   70.831299   20.957472
H   96.596695    9.986544   10.176208
H   49.795147   19.661507   86.339729
H   45.709564   48.159775   51.170975
H   81.294655   41.104656   25.544626
H   99.192734   13.950384   94.723152
H   12.482027   65.935860   25.557835
H   12.951694    5.399546   85.766632
H   38.515484   41.991402   67.399582
H    9.353331   54.969574   61.386570
H   28.454742   67.403931   21.116983
H   52.557899   21.868111   89.392891
H   93.246529   32.098164   83.996048
H   13.061800   56.054138   81.988205
H   77.615044   75.756859    8.328000
H   79.452942   69.963936   96.633087
H   45.123573   30.607199   33.096844
H   74.261536   71.143585   33.948929
H   49.072998   98.505791   99.644035
H   76.890129   96.110092   59.261894
H   78.945213   32.090160   85.001694
H   82.916069   62.801605   32.960026
H   86.856964   16.623686   33.884281
H   45.770290   92.351891   48.198879
H   77.655609   46.404552   44.701523
H   80.745857   77.047607   12.263671
H   58.278820   54.338360   24.745781
H   23.048584   60.045059   84.251076
H   71.042191   47.683411   60.583408
H   16.781437   19.415255   42.206879
H   34.398743   97.385925   12.966613
H   95.546570   98.017830    9.974288
H   28.914633   27.253799   39.033691
H   94.944580   11.383228   70.558662
H    5.945350   59.318962    8.384802
H   52.201694    9.626373   10.799254
H   23.140869    4.213332   84.609940
H   57.493885   77.658501   79.672020
H   40.683750    0.205763    6.287464
H   81.323463   60.146267   90.121651
H   14.715794   32.781700   71.741875
H   93.968826    0.089843   42.349609
H   70.355423    6.674165   97.897850
H   15.757892   36.859558   17.282364
H   93.335106   47.290585   42.170464
H   89.655685   16.492245   64.412506
