100
TIME:    7.824, STEP:  7824
H   88.217278    4.523135   91.982925
H   84.397171   28.834942   71.434525
H   14.258333   36.793350   31.497726
H   82.789841   10.301243   11.302048
H   25.089251   99.885445   53.564117
H    6.687070   92.731773   53.583557
H   42.913975   89.651276    2.300149
H    4.935326   65.476280   89.819878
H   61.299019   34.047775    7.593580
H   61.058571   28.726046   14.060211
H   72.485611   81.058304   86.102081
H   57.222839   15.867022   36.007698
H   44.839272   88.409653   47.578953
H   67.683525   80.960121   52.650799
H   75.636299   71.154587   74.644562
H   86.936676   27.413452   83.580353
H   94.947395   99.468597   85.637939
H   68.379135   14.122999   28.307781
H   67.122986    6.578155   75.559753
H   81.724045   39.661617   49.026894
H   99.989479   77.313721   44.885891
H   12.474839   54.470459   52.992401
H   81.280525   30.990610    8.495795
H   92.095428   30.425997   25.995197
H   49.752754   65.678940   94.321938
H   10.716549   95.451950   54.609871
H   87.406784   17.241995   55.210903
H   72.374626   21.637564   25.391653
H   81.296013   58.946400   87.327904
H    1.000780   97.195114    5.374507
H   23.978533   23.649174   90.369102
H   59.769405   36.342266   74.957207
H   21.468637   96.041756    2.644665
H    8.684031   56.699776   42.137970
H   86.237831   67.283440    1.069335
H   52.764484   98.237671   94.828621
H   30.222733   18.003546   24.965788
H   40.611809   15.767645   74.558632
H   14.817456   10.945940   86.108849
H   26.260433   79.726959   53.611298
H    0.537129   24.643515   26.674528
H   40.849907   72.284973   79.388634
H   78.620575   10.421707   66.608009
H   79.754410   43.967918   45.724354
H   77.981239   23.197941   25.631092
H   77.130760   12.145583   14.947134
H    2.861406   50.334175    0.566239
H   56.665157   75.954651   52.682323
H   93.735115   84.466438   32.370918
H   90.006592   49.819721   36.478142
H   42.964359   14.286760   35.903076
H   85.374680   37.729572   60.439972
H   71.165321   67.374939   48.465492
H   95.508362   79.549484   77.068130
H   17.836403   44.263084   66.895721
H    3.340542    4.303635   26.279373
H   92.260010   63.788216    0.114847
H   43.464279   38.007423   12.026252
H    7.336266   69.361076   10.837395
H   42.715012   29.166782   41.077415
H   53.244732   14.719749    4.376172
H   21.228889   55.117386   41.343346
H    5.231432   73.387238   96.955292
H   80.300346   84.383698   14.716189
H   42.871170   35.954288   24.184237
H   20.707245   53.319084    8.800065
H   59.834412   18.858913   44.805401
H   39.908653   65.000298   40.235046
H   46.850098   87.603600   69.526245
H   88.926125   41.623043   85.249023
H   73.584984   63.057312   68.298103
H   28.980331   91.811913   29.542570
H   96.851212   31.305658   61.145077
H   57.968700   54.237751   38.277527
H   39.360535   39.835621   94.522736
H   10.619431    9.017399   69.472359
H   77.368858   48.614067   29.500673
H   99.566071   39.130123   46.530674
H   36.702103   30.537167    4.972155
H   15.829118   82.808830   46.876564
H   63.982796   10.225228   47.612701
H   28.403503   95.210403   32.448689
H   12.759744   37.963047   75.061783
H   88.427986   81.675659   48.815136
H   71.366348   59.481350   89.304039
H   71.224289   96.441956   85.105423
H   89.702049   34.483940   96.621773
H   81.860466   78.990295   14.455246
H   18.054325   58.544304   64.200569
H   74.592651   87.375015    3.907215
H   44.213032   95.905617   98.690353
H   57.195667   83.919174   82.604637
H   86.987061   62.279705   24.046511
H    3.425744   87.845909   54.359066
H   21.319702   48.903969   95.874420
H   40.151932   86.771179   63.329140
H   41.569725   16.682774   87.223076
H   23.175188   73.589928   21.814661
H   35.995598   70.588127   89.694984
H   25.190294   77.856003   44.029881
