100
TIME:    7.897, STEP:  7897
H   83.280510   97.828789   91.916092
H   82.381027   32.790928   76.037125
H   15.513132   42.045349   30.640865
H   82.802094    7.293457    7.300544
H   24.435118    5.736650   51.584732
H    5.554938   92.652687   60.813271
H   39.088314   94.580246    8.008854
H   99.197662   71.792046   83.117592
H   59.504539   27.028946    2.998436
H   59.064705   29.774218   16.918736
H   65.695328   83.995636   79.070084
H   54.436440   19.526150   30.811459
H   40.184319   83.990845   40.324734
H   64.068947   80.735115   58.206333
H   76.522957   64.633865   71.133575
H   84.001572   21.028625   77.520782
H   89.077187    4.296892   92.283417
H   69.939697   10.570938   25.777298
H   68.260269    9.640767   79.406021
H   79.756912   38.111637   53.997078
H   95.657555   70.046692   42.904835
H   19.473421   54.567368   46.775772
H   80.305870   30.397184    6.407109
H   85.312943   31.299288   20.573608
H   47.141792   59.889648   94.861061
H   10.372356   93.299911   47.739944
H   81.112183   14.207393   56.659519
H   66.214806   25.044958   27.804621
H   82.883308   65.569595   83.877068
H    3.799815   95.388382   11.177635
H   26.851538   30.195236   84.593575
H   64.378685   34.325565   68.199226
H   26.610640   90.700645    9.221082
H   11.768537   50.009743   39.062515
H   84.421074   61.756310    5.510885
H   59.110325    3.955491   94.599159
H   37.224171   15.329927   30.717924
H   37.594833   14.431671   79.710381
H   11.736014    9.355581   79.034523
H   19.384659   72.893234   59.355080
H   95.548035   27.148100   28.394377
H   34.697884   72.571243   83.115715
H   79.248810   10.859606   71.881172
H   75.092773   45.193199   52.861614
H   71.648766   20.317974   31.878075
H   76.188408   13.537669   15.243708
H    3.432066   54.304085    1.267329
H   56.669613   76.706528   57.199154
H   95.869331   78.420235   29.458893
H   91.539307   50.930828   31.373768
H   42.959347    7.238890   36.672775
H   88.922424   30.955484   55.648010
H   72.679100   67.798218   44.226021
H   93.817474   78.358734   80.289505
H   12.023838   50.660721   67.516159
H    3.431463    4.226846   23.794281
H   96.888229   61.681847    7.057857
H   38.028488   31.113512   10.145864
H   13.093700   72.445442    5.233128
H   37.897987   34.778011   39.001122
H   57.849560   11.325026   98.684517
H   18.637978   54.437912   38.040100
H   10.187453   68.405914   91.949463
H   85.312859   84.781357   12.734159
H   45.768959   30.123713   30.982595
H   16.222996   49.690025   13.116534
H   53.977570   21.382713   48.329754
H   34.866066   69.175163   43.724869
H   50.488625   82.358284   64.948151
H   90.408714   45.289417   85.094193
H   71.266975   58.090469   67.422585
H   22.968937   89.388084   34.893276
H   92.091553   27.694700   59.273182
H   56.361912   49.617886   33.940033
H   42.877090   39.943111    0.057663
H   12.345267   13.696022   64.560097
H   83.998741   42.295517   30.795294
H    2.995442   34.357098   50.562405
H   40.202507   30.322742    5.786827
H   12.249209   78.832237   40.587532
H   65.411919   10.980447   51.975815
H   33.881248   95.683807   26.341518
H   17.377104   39.183872   82.013580
H   93.450523   87.922363   42.147938
H   67.811920   54.914951   82.227486
H   69.544540   99.123093   90.174744
H   94.577553   29.176247    0.102685
H   83.034508   73.149048   13.698357
H   19.569496   54.479713   63.603523
H   68.138763   84.371964    6.516715
H   47.200489   99.847679    0.231987
H   62.596928   89.409546   83.995888
H   91.666519   64.470055   29.691713
H   10.480810   92.274742   59.281353
H   20.057384   42.364868   97.551941
H   46.181427   83.888428   59.558617
H   35.775261   20.871841   83.024818
H   23.034281   77.202278   20.349058
H   32.518028   70.903358   83.580833
H   29.724390   75.982437   36.997326
