100
TIME:    3.195, STEP:  3195
H    1.257913   29.023460   96.220901
H   12.395344   77.973328   79.539658
H   34.673920    3.765568   85.835411
H   82.012878    1.015224   65.035950
H   66.553726   28.850842   79.075409
H   78.477180   97.746712   95.157188
H   85.520180   77.079872   40.306099
H   68.765594   65.008957   14.839132
H   75.088737   79.107117   98.972404
H   87.530556   62.258827   32.802849
H    3.063909   94.800476   31.991228
H   33.896675   83.839630   65.505440
H   40.028336   68.405411    7.572362
H   96.883644   95.227974    0.379966
H   19.363949   84.637222   97.190865
H   73.060257   32.282806   67.828468
H   67.184242   93.295639   64.241806
H   69.418785   39.327904   88.778503
H   95.030739   12.386325   31.687220
H    6.441856   37.966007   33.863060
H   74.680893   38.145264   70.522995
H   68.688110   48.325394   47.194504
H   43.086174   68.637489   40.938385
H   22.191422   75.000702   69.786034
H   15.312894   32.779953   60.135597
H   32.009060   32.409580   89.703911
H   86.570557    9.663918   63.367779
H   62.956020    5.571487   72.383018
H   80.642761   38.967087    6.143462
H   23.503563   11.763848   37.381500
H   41.798786    8.557765   56.600716
H   67.491463   64.234016    3.486914
H   95.408539   34.720390   85.627785
H   13.097287   80.920113   37.149994
H    1.351305   17.402802   19.282028
H   50.347256   35.468754    9.657186
H   86.240974   87.527328   60.218807
H   31.936348    0.476802   47.903042
H   10.209498   11.804014   34.692627
H   62.259205   13.077762   89.410255
H   16.896196   65.809387   17.618513
H   44.472771   55.253105   52.904755
H   38.761242   82.659409   32.252155
H   75.336899   66.320374   93.124229
H   79.512566    5.834290   29.516058
H   36.867725   23.856525   96.141792
H   66.695602   98.592010   56.131516
H   56.410046   28.278799   66.266426
H   58.420326   67.838676   17.023710
H   92.888664   79.371635   60.200764
H   43.300861   61.186935   87.104401
H   60.403568   67.267960   64.317558
H   75.152824   40.534424   17.308270
H    2.707172   55.079987   72.803192
H   86.402328   38.585892   27.522467
H   97.563889    9.173956   83.861465
H   98.801842   97.356087   59.858543
H   88.150139   75.159195   31.260830
H   42.259178   73.765137   66.202492
H   48.181000   73.366989   72.737190
H   61.243813   29.990147   65.287277
H   85.517815   98.203476   50.792099
H   90.968849   89.261772   14.379745
H   62.435669   59.174507   40.397289
H   59.139210    5.664137   93.105202
H    5.071346   83.439980   35.097137
H   31.228149   58.819836   21.317129
H   59.665276    0.261976   18.942076
H   16.139633   20.213997   59.849079
H   95.116760    8.841261   95.005371
H   20.576714   78.011803   23.822643
H   10.525203   45.489365   90.544678
H   98.670990   60.266834   79.828362
H   59.880245   47.194016   13.320198
H   16.215796   33.192997   43.600986
H    1.186907   12.341784   80.946167
H   57.040989   49.625824   47.554737
H   82.087234   41.807537   90.887329
H   14.725556   44.134007   53.329597
H   42.836586   34.947025   45.669052
H   73.402298   62.335400   70.946503
H   81.048981   65.093338   19.613668
H   19.946386   60.587189   34.207767
H   69.960052   85.561859   71.602264
H   96.758759   49.036213   38.032936
H   77.759644   26.411285   63.653698
H   80.541542   71.050392   75.893204
H    7.386602   49.494888   62.515533
H   21.988747   16.279924    2.060492
H   83.857758   77.825150   38.431129
H   54.775177   45.951992    0.934296
H   14.689852   35.787720   94.404030
H   90.260391   23.382544   66.078697
H   56.037434    7.032570   42.240875
H    1.349418   63.542042   89.505211
H   57.815491   69.564278    2.422884
H    8.998542   51.035015   53.442329
H   18.594725   43.441193    4.913633
H   56.510979   50.622684   77.422432
H   37.664364   96.646034   89.955048
