100
TIME:    8.346, STEP:  8346
H   52.916008   56.653099   91.505020
H   69.980362   57.122952    4.346562
H   23.231005   74.348740   25.370583
H   82.877457   88.794548   82.690376
H   20.411753   41.725956   39.410156
H   98.592041   92.166252    5.277999
H   15.556699   24.899569   43.121235
H   63.907150   10.637565   41.892105
H   48.467262   83.858734   74.737045
H   46.801064   36.221195   34.500374
H   23.930435    2.062179   35.820717
H   37.298172   42.032330   98.852180
H   11.553036   56.813057   95.704819
H   41.836815   79.351173   92.373833
H   81.976509   24.526962   49.540901
H   65.948669   81.757225   40.250275
H   52.971382   33.993687   33.157661
H   79.538223   88.722740   10.213411
H   75.255341   28.478130    3.062788
H   67.657700   28.577581   84.567116
H   69.013252   25.346523   30.719801
H   62.519489   55.163422    8.539246
H   74.311073   26.747210   93.560684
H   43.594330   36.670624   87.227463
H   31.082687   24.280556   98.177040
H    8.255337   80.063400    5.486053
H   42.394157   95.542923   65.568893
H   28.330751   46.002766   42.647255
H   92.646263    6.306660   62.652061
H   21.015762   84.275742   46.871368
H   44.523701   70.456917   49.070122
H   92.728935   21.921474   26.633018
H   58.238895   57.849159   49.670547
H   30.741020    8.861607   20.147436
H   73.246773   27.760674   32.829739
H   98.141586   39.124741   93.187813
H   80.288658   98.885506   66.097496
H   19.037170    6.214518   11.396041
H   92.783867   99.573692   35.522575
H   77.093033   30.858492   94.680298
H   64.861526   42.553017   38.972622
H   96.858368   74.332001    6.039283
H   83.112885   13.552982    4.314398
H   46.423100   52.731857   96.763214
H   32.702393    2.604137   70.300957
H   70.392296   22.099953   17.067839
H    6.942020   78.721748    5.579436
H   56.697018   81.331085   84.980751
H    8.994125   41.234039   11.547939
H    0.966284   57.764896   99.979546
H   42.928516   63.891090   41.406952
H   10.744062   89.292023   26.173824
H   81.989876   70.401672   18.149458
H   83.417358   71.034805    0.103157
H   76.273811   90.008301   71.332275
H    3.990692    3.754541    8.509262
H   25.352356   48.726234   49.761543
H    4.595763   88.710274   98.580223
H   48.506618   91.416405   70.764496
H    8.269765   69.290390   26.230492
H   86.172409   90.443970   63.674938
H    2.702077   50.258682   17.724083
H   40.670628   37.767365   61.160187
H   16.144249   87.227234    0.543062
H   63.592346   94.262543   72.795486
H   88.641060   27.368828   39.665012
H   17.953310   36.905270   70.006943
H    3.850365   94.853447   65.189667
H   72.866699   50.096001   36.786423
H   99.527657   67.840714   84.141876
H   57.007954   27.538872   62.037544
H   85.994446   74.479881   67.803391
H   62.816391    5.484883   47.759747
H   46.479061   21.201897    7.263052
H   64.506317   40.604252   34.100880
H   22.960901   42.473381   34.349686
H   24.777847    3.432157   38.759552
H   24.088137    4.999722   75.361877
H   61.732391   29.003887   10.797621
H   90.230064   54.373466    1.905935
H   74.202003   15.625558   78.811951
H   67.572372   98.595566   88.777687
H   45.777855   46.692783   24.773800
H   24.341213   26.344694    1.139861
H   45.949753   26.828472   38.701836
H   59.211346   15.615546   21.354950
H   24.565325   96.529961   21.512794
H   90.255669   37.218819    9.042969
H   28.888836   29.479872   59.931282
H   28.440016   65.901138   22.566889
H   65.575401   24.091198    9.714377
H   95.818382   23.178242   92.553032
H   20.448032   77.939507   64.413574
H   53.873711   19.515003   89.556786
H   12.293266    2.144983    7.869185
H   83.266953   66.157532   36.367317
H    0.136493   46.638451   57.202660
H   22.167604   99.420708   11.334597
H   11.128789   72.842247   45.972973
H   57.612186   64.458725   93.743088
