100
TIME:    6.648, STEP:  6648
H   67.745193   12.367311   93.059586
H   16.874290   65.110970   97.282631
H   94.040955   52.187477   45.305729
H   82.592453   58.752960   75.764160
H   35.625519    5.623882   85.451202
H   24.926342   94.005821   37.119831
H    4.549285   10.241674   10.335413
H   97.366600   63.737270   97.795937
H   90.207344   47.115341   81.619331
H   93.178932   11.839872   68.013832
H   81.874268   33.739094   99.380852
H    2.103395   56.920475   19.717052
H   19.844101   59.572430   64.442802
H   25.911488   84.584877   63.157055
H   61.352608   76.200706   31.200314
H   34.222900   30.270729   81.198730
H   89.514412   21.684780   78.582008
H   43.231709   71.347412   69.069862
H   48.809261   57.246895   13.605258
H   13.409950   64.631386   68.959373
H   69.774979   94.387421   76.803490
H   99.730576   52.909302   53.139664
H   96.981819   40.554466   42.144058
H    1.362516   16.357637   13.334810
H   91.814278   58.941330   85.636879
H   16.240988   30.127853   65.268074
H   88.814491   66.129593   31.874296
H   71.602097   66.745872   86.520370
H   55.725334   52.250408   42.917023
H   55.906727   26.302055   11.885693
H   77.697029   18.194901   83.410408
H   85.516113   68.831818   83.825417
H   38.633244   82.083275   96.701294
H   58.995766   64.473190   91.682281
H   15.505943   56.323158   29.520838
H   50.536739    6.128355   98.525154
H   17.429047   61.071411   32.301609
H   89.218697   37.291851   91.572884
H   64.460327   36.566765    0.072124
H   37.026264   89.819702   61.086369
H   80.908157   84.292000   98.969704
H   39.956818   67.673279   19.352612
H   68.499969    3.367290   81.665855
H   54.845287   24.229147   30.742163
H   79.990562   69.594101   24.997801
H   92.311668   89.717270   10.169455
H   93.672165   86.378433   89.278893
H   56.594456   63.842224   79.918503
H   59.354980   81.862465   79.283463
H   65.315186   31.920225   18.703447
H   43.045109   27.822313   23.506615
H   28.218006   46.854958   37.636513
H   46.772633   60.556091   16.762762
H   22.740364   98.731979   25.173702
H   11.471085   41.203972   56.894352
H    1.875835    5.540672   66.313187
H   17.706865   97.720955   88.267494
H   31.031454   49.066139   42.318954
H   14.591191   19.665203    1.116423
H   20.319916   38.775845   74.525658
H   79.061394   69.407364   96.066177
H   62.967415   66.063431   94.552124
H   25.392771   53.635658   77.597137
H   99.545395   77.977570   46.648045
H   96.192596   29.879150   14.668254
H   92.950439   11.781282   39.265488
H   54.187180   78.199799   88.027115
H   21.143105   97.742897   84.015442
H   88.237221   72.103455   43.282269
H   65.069054   82.517509   87.734344
H   10.928001   43.071548   82.402351
H   25.809416   30.890961   43.357506
H   73.529037   89.469574   91.292542
H   83.860283   28.667839    8.152372
H   82.697380   38.119381    5.361182
H   82.820839   33.646923   48.602821
H   70.563080   50.400066    8.644869
H   44.315456   16.023432   81.584145
H   80.308372   33.991451   91.852257
H   73.500961   46.871925   48.189995
H   40.963860   98.058273   77.324615
H   40.157433   87.584061   30.833118
H   38.376328   18.296057   63.066284
H    7.521878   81.042747   56.224216
H   28.627169   33.048996    3.303408
H   98.284348   53.247704    3.440410
H   11.159685   19.989037   40.545723
H   62.947136   73.094971   26.648422
H   93.647079   24.022055   73.818733
H   78.566605   35.759579   61.864624
H   96.086174   32.405075   73.855392
H   70.183578   95.472855   60.193687
H   11.603040   26.992168   33.104622
H   89.770515   16.499231   75.063446
H   41.652992   54.243050   68.850250
H   43.019150   33.208649   24.071304
H   34.915001   49.194702   54.856873
H   25.445147   15.402665   45.422371
H   92.017815   65.509880   88.197258
H   52.142986    8.036892   57.318340
