100
TIME:    0.088, STEP:    88
H   11.371556   13.951184   99.065445
H   98.822304    9.515976   83.551544
H   81.276398   80.235008   22.306602
H   81.491379   29.025229   35.339561
H   94.382843   79.811111   63.319237
H   26.651741    1.117874   87.460411
H   48.357708   67.281029   97.334198
H   12.969671   96.215668    0.113485
H   51.464790   77.832504   94.547371
H   72.435707   17.650719   11.134684
H   92.069489   69.783401   31.273186
H   52.483196   28.101479   86.665428
H   37.664726   56.383286   16.382660
H   50.724812    4.805943   63.938171
H   81.573341   62.160667   46.542980
H   97.984161    4.040713   25.735271
H   16.991007   87.816689   81.366997
H    3.025296   90.421082   96.495407
H   46.634598   82.045288   67.997375
H   90.267311    3.687197   22.191553
H   59.054504   47.457222   54.852768
H   70.785805   44.216087   11.762243
H   84.569099   93.906517   29.833282
H   10.865421   37.737186    0.538453
H   26.435358   79.194008   37.208084
H   46.250904   24.991920   80.922356
H   54.491093   38.819187    1.712603
H   25.115425   60.546719   69.684952
H   13.084598   57.075924   53.012238
H    4.368362   88.661667   90.384697
H   19.563417   29.933664    2.448452
H   71.313751   50.078819   91.117500
H   76.557068   62.043678    5.724690
H   81.820290   65.658020   68.044090
H   78.584450   52.268082   30.087135
H   80.206291   91.398674   20.341536
H   88.240334    1.311451   15.398643
H   60.351151   57.343594   28.651407
H   46.764912   78.629448   33.692413
H   54.904186    3.944490   44.957985
H   29.227833   59.198368   44.411427
H   23.712234   15.806002    6.934714
H   11.999717   64.027649    7.829921
H   73.740219   14.246617   89.335709
H   49.021660   28.419872   63.637970
H   76.827538   64.858452   83.663383
H   37.009266   30.487736   28.375189
H   56.244114   96.288010   74.022888
H   67.599602   25.161129   40.964035
H   27.735426   32.088810   77.509659
H   43.533184   61.149025   54.352917
H    9.409997   55.573830   68.286026
H   10.704803   22.518982   97.758644
H   74.646912    5.766478   35.698933
H   33.753990   66.220276    1.152902
H   93.676346   12.439869   89.631073
H    1.831492   87.007607   64.356972
H   19.507219   68.576012   11.288275
H   97.218147   42.487244    4.727244
H   53.215225   34.551903   61.098488
H   65.251846   74.477524    7.535235
H   95.787842   27.126266   91.372467
H   80.202400    1.152161   27.520966
H   49.082581   42.273178   24.751593
H   35.814400   53.816456    3.756085
H   95.939522   37.898426   51.389111
H   80.508018   51.403812   71.310898
H   74.286964   22.570156   70.409508
H   61.289955   43.463203   54.714336
H   32.169518   52.570679    1.545715
H   19.238424   89.416740   61.091984
H   66.710045   48.604988   63.065769
H    1.253521   13.954395   59.493214
H   28.254013   43.811275   97.978508
H   66.413010   28.768911    8.068746
H   27.738264   13.212141   90.008499
H   74.945374   18.916901   92.589050
H   36.114731   44.966084   19.299862
H   65.772545   53.242199   18.669685
H   95.209763    4.161098   13.339806
H   12.604179   30.191393   85.248352
H   47.926853   44.802261   79.422058
H   23.364025    8.726169   38.281342
H   56.224327   19.691868   55.392372
H   48.046051   43.380905   39.221581
H   49.273106   12.281604   47.895824
H   73.032036   96.954597   27.739376
H   57.371796   98.248695   94.823372
H   57.509468   89.272820   27.481041
H   58.554543    5.666312   27.357683
H   27.623903   78.182587   35.320141
H   84.797737    2.125165   35.201653
H   90.930580   30.268244   25.722765
H   55.734062   18.570044   32.752399
H   55.070286   41.847485   18.109478
H    1.190000   92.256584   62.903603
H   55.617210   72.730553   32.127937
H    7.188480   16.986938   54.627167
H    4.519951   37.229626   37.680317
H   44.706615   76.442436   89.210190
