100
TIME:    3.438, STEP:  3438
H   84.824615    6.739246   95.998428
H    5.635486   91.147446   94.868057
H   38.850853   21.247326   82.984047
H   82.053665   91.003838   51.715511
H   64.377197   48.328365   72.486496
H   74.709969   97.483452   19.222410
H   72.783592   93.487267   59.309013
H   49.666275   86.032669   92.527855
H   69.115334   55.743729   83.677376
H   80.889732   65.747948   42.319138
H   80.460648    4.578025    8.584272
H   24.621399   96.020035   48.208153
H   24.571568   53.703644   83.419579
H   84.851555   94.478981   18.873028
H   22.320061   62.931259   85.511024
H   63.289978   11.029097   47.657570
H   47.643684    9.368495   86.363052
H   74.609825   27.510872   80.354187
H   98.816490   22.581156   44.488697
H   99.895561   32.806484   50.407646
H   60.260925   13.953163   63.926689
H   91.984756   48.647980   26.500793
H   39.841774   66.661186   33.986099
H   99.614021   77.915100   51.738491
H    6.622073   13.508217   61.930214
H   30.893919   25.169058   66.926369
H   65.617294   99.562454   68.188271
H   42.453266   16.913910   80.414299
H   85.926498   61.014175   94.656837
H   32.820633    5.749194   56.699585
H   51.363277   30.347925   37.375328
H   82.834694   57.520828   80.991188
H   12.525150   16.941864    7.519146
H   23.365219   58.650551   26.912983
H   95.311020   99.033531   34.078346
H   71.477257   54.558804    8.819554
H    9.548287   78.628403   79.366325
H   21.893539   96.030861   65.050270
H   99.951965    6.510080   11.144667
H   39.372280   90.329086    8.528532
H    0.289396   74.148422   23.343489
H   22.633324   66.159485   64.321335
H   40.854343   84.116608   49.803432
H   59.819397   70.391632   16.883703
H   58.433727   96.246582   50.309994
H   33.732708   28.491383   97.128090
H   68.594040   11.807630   58.465630
H   56.423023   30.780695   81.301903
H   65.523178   47.713776    7.329955
H   97.983299   83.068398   43.205669
H   43.282322   37.727142   89.666550
H   72.213181   44.718719   48.364414
H   80.191841   41.943420    3.195123
H   97.079491   51.114403   83.526398
H   67.054581   59.882133   29.588686
H   97.867935    8.918112   75.589172
H   14.206819   90.344475   82.969795
H   70.055656   52.211090   25.000992
H   61.423386   84.032272   47.546482
H   32.146248   92.043610   65.825691
H   76.572212   18.689850   46.341709
H   76.893272   95.941666   39.796364
H    7.465676   72.680107   97.716484
H   79.121330   60.496368   33.799107
H   68.784355   86.256721   15.735070
H   90.143501   71.359688   49.465195
H   11.731159   67.220764   33.049725
H   42.879677   14.159961   30.558882
H   28.251442    2.753571   44.607815
H    0.040824   21.063650   94.493683
H   12.859865   61.478340   20.907318
H   90.488449   37.424713    8.335570
H   82.827194   48.247723   73.599113
H   54.530392   31.815571   98.880394
H   27.931787   33.539684   62.021763
H    6.931988   27.915831   64.594391
H   79.103493   28.563332   51.852177
H   93.503815   25.917749    4.306648
H   26.377638   43.420238   56.041916
H   30.919441   21.712448   24.734329
H   78.155807   64.849350   85.470291
H   99.280655   66.680313   99.293579
H   35.321133   64.643616   57.352390
H   86.678909    6.355829   49.408081
H   84.926895   33.835735   14.476768
H   72.168152   35.337440   80.528290
H   96.770958   53.382317   87.480347
H   11.297495   30.039612   59.988609
H   27.032398    2.750333    0.072423
H   62.374126   67.828690   47.116852
H   64.719727   59.072346    6.066079
H   32.670387   54.062035   99.035179
H    5.837016   30.674101   84.870262
H   79.523811   21.772358   58.624168
H   97.148140   41.774899   95.089287
H   77.886276   59.968269   89.871605
H   89.710358   64.980370   39.467308
H   19.486471   45.510193    1.025437
H   44.934959   51.670162   57.069214
H   52.757313   90.409370   66.547165
