100
TIME:    5.358, STEP:  5358
H   54.982582   30.665409   94.240616
H   52.499947   95.205078   15.944167
H   71.857269   59.379852   60.452442
H   82.375931   11.900414   46.473274
H   47.179932    2.224817   20.427578
H   44.934963   95.403374    9.366615
H   72.156258   23.135098    9.455659
H   98.758057   52.136288   16.239597
H   21.918068   71.143509   62.821320
H   28.419531   93.316307   17.502394
H    1.866923   81.833420   23.640152
H   51.342491   92.259666   11.540960
H    2.161894   37.582069   92.623955
H   89.785072   88.561012   64.987450
H   45.672707   91.429581   93.217743
H   86.089813   43.098831   88.279999
H   93.248543   36.360584   61.148224
H   15.644843   34.116314   13.790041
H   28.721100    3.126296   45.641483
H   48.161766   92.031288   81.130196
H   46.325401   22.811325   11.819359
H   76.057022   51.196808   62.995087
H   14.206752   51.045952   79.051254
H   21.222195    0.925509    9.140975
H   37.950592   61.244621   76.109901
H   22.121534   68.264191   86.575592
H    0.052125   19.750771    6.276317
H   80.449013    6.533012   43.880531
H   27.675865   35.211338    3.897305
H    6.443312   58.229240    9.334476
H   26.925716    2.518292   85.471031
H    4.064697    4.478161    3.247158
H   47.768009   76.465706   80.487907
H    4.489255   82.694054   46.026604
H   47.586411   53.896408   50.992050
H   38.399052    5.089928    2.581313
H   93.701111    8.313435   30.654644
H   42.535587   60.902615    0.541679
H   18.908657   64.675285   25.082060
H   58.528942   10.584930   59.591694
H   69.070389   40.028381   68.577858
H   50.073967   52.328705   54.519474
H   57.392429   95.630280   88.487953
H   37.216991    2.576617    4.613331
H   91.888954   20.493279   14.608947
H    8.961065   65.112473    4.928633
H   83.594040   16.224129   76.897758
H   56.525562   50.555634    0.100639
H   21.650589   88.700500   30.740677
H   38.251110   12.283537    8.919441
H   43.135838   52.363327    9.908902
H   65.521217   66.557953   22.318886
H   20.012455   53.076233   91.684654
H   52.610588   19.781395   68.250206
H   14.182922   28.154192   45.920612
H    0.269083    6.897627   10.227844
H   35.925552   34.944084   65.577827
H   27.087547   70.890633   75.545273
H   12.851370   65.157829    0.146115
H    5.446987   39.622166   11.216316
H   97.686951   29.400631   96.644707
H    8.751242   78.070572   52.923088
H   37.814922   41.663132   66.056305
H   10.963401   70.950439   81.670471
H   44.991280   32.909229   94.535881
H   72.195610   75.911064   62.990105
H   57.686249   33.602932   25.746956
H   10.252122   23.967333   22.345984
H   23.943678   64.794624   24.187843
H   38.938354   17.633636   90.450714
H   51.892296   30.842224   97.873848
H   32.175827   73.703308   48.910004
H   57.639862   53.276352   24.368568
H   12.259899   10.311607   84.799706
H   20.502428   36.278942    7.570448
H   52.326805   50.971039   35.404232
H   53.427204   62.151394   85.807259
H   83.708908    0.373369   10.341117
H   18.449314   37.780590   77.463371
H   36.760262   17.142670   59.324738
H   15.719366   84.712631    0.224580
H   43.343941   79.218292   38.744400
H   56.781441   96.724060   40.212803
H   18.772154   70.654709   74.045929
H   91.438560   13.738114   28.354286
H   27.976521    5.861579   13.859134
H   25.003439   13.782684   79.033600
H   42.200371   76.321594   40.023590
H   66.877060   95.847832   84.369270
H   92.619232   88.832443   15.753513
H   43.294121   62.746578   46.612957
H   74.736641   98.452530   35.618416
H   28.911470   88.286934   33.346943
H   65.097115   38.236767   88.080910
H   63.954781   69.793388   39.206394
H   36.470444   84.150421   90.701096
H   37.309166   75.165382   29.045792
H   26.532370   61.857849   70.293373
H   53.470276   59.946529   96.247658
H   72.016022   41.138828   81.587753
