100
TIME:    4.519, STEP:  4519
H   11.721024    7.606037   95.008743
H   75.671791   49.742729   63.044624
H   57.432190   99.019508   70.299583
H   82.235107   46.468010   92.460945
H   54.694778   34.975281   43.175323
H   57.948322   96.312325   26.277613
H   16.129936   66.483429   43.844692
H   64.701805   79.552551   93.273949
H   42.542290   51.809998   15.631647
H   51.347633   81.269508   84.648895
H   79.908661   48.074223    4.456898
H   83.363136   50.204689   71.261772
H   55.700363   88.316887   75.991455
H   31.326141   91.147041    1.136973
H   35.469414   66.372101   33.547726
H   19.825153   16.480949   57.924744
H   60.716042   80.867126   84.770744
H   97.704613   74.937599   42.874462
H   15.653332   67.932755    1.442053
H   70.765831    9.850058   24.007120
H   96.112862    6.335988   34.590775
H   95.621277   50.083023   34.443665
H   25.408867   57.869484    3.055444
H   99.177399   90.879974   71.453552
H   67.958771   27.780205   69.913673
H   25.946169   93.061905   65.471123
H   72.401192   54.629032   89.631447
H   51.241207   67.371353   16.144732
H    9.432261   59.090939   43.556099
H   74.271942   78.994286   42.635780
H   93.905693   27.283287   51.850044
H   51.089581   27.657082   80.917595
H   88.669533   37.850319    4.904164
H   69.039963   59.583344   81.373268
H   68.441071   17.318535   99.905151
H   65.466583   39.376438    5.220552
H   13.230249   39.041000   64.544846
H   77.212578   76.253654   41.334354
H   54.325733   82.956718    6.387872
H   37.554245   89.129555   93.579712
H   26.409737   11.242803   48.811382
H   25.479172   14.672582   15.107937
H   50.165630   90.599045   27.886297
H   90.790680   88.502869   22.578959
H   64.664803   53.593170   42.813984
H   19.786396   49.109821    1.518066
H   77.039352   70.596336   68.845222
H   56.480755   41.914200   48.188026
H   97.127121   58.185139   64.211670
H   20.654591   99.513664   67.598366
H   43.199848   33.363609    1.064234
H   24.747023   44.410084   77.398468
H    2.608983   48.211426   40.412769
H   72.040459   33.473267   31.226532
H   80.985260   54.622890   38.783428
H   99.220505    7.780173   38.789383
H   82.736572   59.152901   85.781883
H   89.561661   50.124031   97.155258
H   46.680000   29.708366   64.558250
H   60.810078   75.134018   35.079475
H   44.762970   68.416039   62.057877
H   38.526482   85.879868   90.883255
H   80.855797   98.914230   23.589073
H   53.351944   66.380081    4.446697
H   11.688504   99.918518   16.403875
H   23.735634   17.619789   13.381923
H   25.000933    4.597230   85.239120
H   68.207497   75.983475   82.236931
H   82.128769   25.079803   76.809418
H   21.941641   75.436035   92.217407
H   78.533516   87.926895    7.938325
H    1.355472    1.547981   87.481956
H   12.343973   94.779182   45.882538
H   30.728466   63.409725   34.649834
H   80.049812   35.081944   43.969204
H   32.489914   97.197838   91.858353
H   77.251358   34.869305   70.969597
H   44.291164   55.235111   64.009056
H   78.214653   40.244999   68.105019
H   77.904846   62.840969   31.605247
H   99.302078   76.032791   50.078671
H   80.391472   73.740067    8.901289
H    3.710302   82.692932   60.311550
H   61.048744   98.859322   50.675476
H   32.292145   66.220085    9.686007
H   47.288525   75.046257   55.596313
H   68.968513   74.784805   39.026962
H   28.695333   43.492058   48.747437
H   49.466171   42.561104   91.231209
H   66.799210   23.351303   85.760452
H    8.958823   17.445232   28.894815
H   12.657723   35.352379   19.634207
H   75.130211   63.111031   68.465744
H   84.006363   87.343658   31.511969
H   78.459587   44.945602   19.928398
H   67.172455   17.281277   34.036873
H    3.905723   27.016598   77.296997
H   23.453459   54.714264   83.722801
H   93.438507   56.329929   66.524330
H   19.903986   62.665600   62.411556
