100
TIME:    2.920, STEP:  2920
H   19.854599   54.242424   96.472672
H   20.045204   63.064217   62.192707
H   29.946936   83.980820   89.062263
H   81.966721   12.345919   80.108582
H   69.016876    6.808378   86.531998
H   82.740486   98.044640   67.924065
H   99.934013   58.511215   18.800743
H   90.380051   41.218700   40.089542
H   81.848763    5.547262   16.283062
H   95.045891   58.310234   22.033388
H   28.643738   83.735184   58.479534
H   44.393387   70.055222   85.080559
H   57.520058   85.043213   34.904877
H   10.499808   96.075600   79.453651
H   16.018555    9.201299   10.409902
H   84.117157   56.335236   90.655617
H   89.298042   75.105255   39.207470
H   63.543991   52.701088   98.312195
H   90.746452    0.849120   17.199953
H   13.850189   43.804974   15.139765
H   90.999786   65.523041   77.987976
H   42.323593   47.960327   70.613312
H   46.757820   70.874046   48.806198
H   47.741882   71.702515   90.208778
H   25.147697   54.589531   58.105759
H   33.270008   40.602596   15.480074
H   10.283569   21.095617   57.910664
H   86.160728   92.735451   63.293957
H   74.663223   14.017394   19.142176
H   12.959493   18.570358   15.520260
H   30.974874   83.897430   78.357841
H   50.127724   71.833275   28.945015
H   76.039032   54.841011   60.853615
H    1.477573    6.122211   48.735611
H    8.187596   38.190613    2.537223
H   26.437252   13.865667   10.602372
H   59.864197   97.598129   38.549801
H   43.301666    5.509861   28.497868
H   21.817932   17.795092   61.342484
H   88.162003   38.822632   67.774818
H   35.689983   56.373905   11.140025
H   69.188194   42.910080   39.984756
H   36.392506   81.010315   12.388610
H   92.897858   61.711937   66.235191
H    3.367624   16.683971    5.982906
H   40.415585   18.611317   95.025612
H   64.547165   83.636871   53.490028
H   56.395359   25.447435   49.250969
H   50.382568   90.615471   27.993540
H   87.123131   75.188057   79.435577
H   43.321842   87.736084   84.204849
H   47.038776   92.784851   82.369469
H   69.450233   38.939880   33.280014
H    9.074856   59.567787   60.667877
H    8.297821   14.485206   25.184153
H   97.219803    9.463171   93.223114
H   81.366768    5.291322   33.703835
H    8.627234    1.129309   38.344070
H   20.571289   62.145947   87.313408
H   66.327591   52.229725   80.558846
H   43.896858   42.777966   86.729691
H   95.278099    0.763284   63.235832
H   72.300102    8.027262   33.237320
H   43.550819   57.678574   47.864368
H   48.222881   27.628143   67.495995
H   21.964821   97.111092   18.837841
H   53.291634   49.313419    8.039409
H   78.661324   84.534729    5.795485
H    2.433281   39.973747   77.095833
H   89.544250   95.009834   95.584442
H   29.309986   96.722511   27.121880
H   33.200058   54.616028   70.411469
H   16.602095   73.870232   86.877922
H   65.932549   64.597549   29.664268
H    2.957373   32.800655   22.753963
H   94.686729   94.717033   99.451263
H   32.071697   73.461319   42.691380
H   69.167236   59.790211   75.701401
H    1.538681   44.941769   50.260101
H   56.323067   49.925243   69.360611
H   68.022812   59.490398   54.510120
H   60.416061   63.297379   42.609230
H    2.547375   55.996582    8.015453
H   51.040974   62.029755   96.720520
H   10.149243   66.238129   64.691185
H   84.087463   16.310062   44.556942
H   62.174919   91.045128   62.780182
H    2.960696   71.512177   65.376228
H   16.280910   31.590689    4.310424
H    8.170862   89.138016   28.601246
H   43.521057   31.103790   95.126785
H   94.341507   15.106936   89.163017
H   72.632294   15.130726   44.812523
H   29.456814   90.352287   23.699642
H    6.104471   88.173584   83.185783
H   35.101639   80.423958   16.627411
H   30.826122   35.253231   69.257683
H   17.585546   41.099731    9.313839
H   69.611412   49.437267    0.456343
H   20.583864    3.703017   16.446413
