100
TIME:    8.105, STEP:  8105
H   69.214104   78.754082   91.725662
H   76.636398   44.062778   89.151382
H   19.088449   57.009949   28.199398
H   82.837006   98.723442   95.899483
H   22.571287   22.408741   45.944839
H    2.329139   92.427345   81.411659
H   28.187523    8.625377   24.274723
H   82.849274   89.787651   64.020668
H   54.391502    7.030030   89.906189
H   53.383553   32.760792   25.063572
H   46.347672   92.365021   59.034103
H   46.497108   29.952175   16.006344
H   26.920891   71.400269   19.654703
H   53.769875   80.094002   74.034798
H   79.049324   46.054276   61.130127
H   75.638535    2.835955   60.255157
H   72.351112   18.054134   11.218480
H   74.386230    0.449855   18.567154
H   71.500748   18.367207   90.365250
H   74.151932   33.695255   68.158699
H   83.314537   49.339512   37.260181
H   39.414585   54.843491   29.062637
H   77.528770   28.706327    0.455782
H   65.987503   33.787567    5.125551
H   39.702339   43.393677   96.397194
H    9.391644   87.168076   28.165516
H   63.176804    5.560751   60.787083
H   48.664925   34.753696   34.680237
H   87.406013   84.441177   74.044548
H   11.775246   90.240433   27.712486
H   35.037930   48.846313   68.137276
H   77.511986   28.579350   48.943611
H   41.262325   75.482140   27.959364
H   20.557468   30.947731   30.299730
H   79.244560   46.007774   18.166235
H   77.191620   20.247545   93.945351
H   57.173267    7.711946   47.107571
H   28.998241   10.625061   94.389336
H    2.955914    4.824148   58.877541
H   99.793427   53.420937   75.719788
H   81.332458   34.284454   33.294765
H   17.168831   73.386917   93.735344
H   81.038849   12.107317   86.906075
H   61.811047   48.684914   73.198639
H   53.606392   12.111858   49.677002
H   73.503349   17.504162   16.088739
H    5.058058   65.615608    3.264956
H   56.682308   78.848862   70.069023
H    1.949930   61.192955   21.161713
H   95.906494   54.096722   16.830494
H   42.945065   87.157799   38.865891
H   99.031067   11.654642   41.994202
H   76.992332   69.004272   32.146431
H   88.999603   74.965912   89.468216
H   95.462318   68.889175   69.283981
H    3.690527    4.008050   16.713470
H   10.074552   55.680138   26.840508
H   22.540693   11.469896    4.788045
H   29.498425   81.233772   89.265335
H   24.172768   50.766171   33.085106
H   70.970169    1.652386   82.466255
H   11.255653   52.501877   28.628399
H   24.308609   54.212555   77.686279
H   99.595085   85.914413    7.086696
H   54.025673   13.511084   50.352509
H    3.445953   39.349693   25.415211
H   37.289581   28.573814   58.371746
H   20.498146   81.070671   53.668472
H   60.855934   67.412727   51.902245
H   94.633080   55.736073   84.653030
H   64.662239   43.937843   64.927956
H    5.840816   82.481834   50.138760
H   78.529785   17.405943   53.939564
H   51.783665   36.454433   21.581816
H   52.896866   40.249386   15.828043
H   17.262819   27.026894   50.565041
H    2.889455   24.291977   34.484612
H   12.766570   20.757244   62.050076
H   50.176262   29.711781    8.108086
H    2.049019   67.501671   22.668098
H   69.483940   13.132302   64.407700
H   49.488548   97.032684    8.940212
H   30.533415   42.662388    1.821569
H    7.760880    5.721323   23.150990
H   57.684235   41.903843   62.064156
H   64.758408    6.763202    4.618936
H    8.469483   14.052904   10.021019
H   86.379723   56.504776   11.541740
H   23.886696   42.898415   61.902351
H   49.748371   75.815323   13.951843
H   55.712696   11.078656    4.624747
H   77.986824    5.053172   87.959999
H    4.999692   70.709801   45.776672
H   30.583044    4.893837   73.306496
H   16.460644   23.732910    2.331528
H   63.361359   75.674561   48.815208
H   19.265619   32.807869   71.062660
H   22.632792   87.495003   16.173094
H   22.609337   71.801552   66.159691
H   42.643459   70.644058   16.959362
