100
TIME:    1.732, STEP:  1732
H    0.194728   63.188095   97.560318
H   53.091530   98.650658   87.254326
H    9.526373   98.511604    3.003695
H   81.767319   61.291832   45.226871
H   79.657684   11.584950   18.742947
H    1.158307   99.331688   50.271915
H   62.194607   78.291023   25.897514
H   83.754509   38.441708   49.168098
H   11.052132   19.768784   91.063591
H   27.508295   41.252312   75.514244
H   39.148605   35.933125   72.913818
H   89.734039   10.506788   69.643440
H   33.090164   56.918999   52.981705
H   69.323143   99.737343   89.045708
H    1.566861   15.318100   67.518356
H   31.885010   60.243744   89.270279
H   84.817261   96.536911   31.049505
H   38.156509   10.473537   39.501266
H   72.238335   51.014282   54.609638
H   45.854187   69.031113   34.255226
H   61.497299   83.791321   10.235237
H   28.423405   46.385979   71.779091
H   62.619331   80.535973   82.795151
H   58.119957   57.454350   78.441284
H   67.637688   48.810371   49.341141
H   38.717304   75.999496   26.832300
H   12.726112   70.481644   34.335926
H   86.400772   37.283611   24.022627
H   48.831619    6.232822   75.299950
H   67.405922   47.973068   21.077484
H   84.233711   77.362122   72.356812
H   75.116760    4.660946   38.924141
H   92.357132   41.760521   53.829193
H   51.282616   14.995146   98.785477
H   37.720253   27.994362   30.195145
H   23.145557   20.541185   14.685578
H   45.920113   41.107277   44.940067
H   92.405083   27.253597   44.663296
H   72.857407   43.534904   76.123444
H    0.058783   50.039639   74.305069
H   16.878632   15.612533   83.149704
H   75.958893   89.590492   84.172440
H   26.159567   73.886230   26.577847
H   68.759407   41.798943   50.079380
H    6.417751   63.552471    4.321684
H   55.742336   95.952034   90.203712
H   54.368397   19.171824   42.423042
H   56.331913   13.215944   75.744286
H   15.659451   89.005394   75.385178
H   62.215374   57.111546   62.525028
H   43.412479    2.429739   71.678787
H   89.305382    3.022003   60.360645
H   44.807983   32.051453    2.277253
H   36.583248   78.948097    8.245371
H    2.874774   10.340967   15.103388
H   95.733353   10.711699   33.665436
H    6.053925   39.571022   20.715185
H   97.088959   13.321412   68.943192
H   26.876099   11.949433   78.517334
H   44.723972   60.916317   14.347486
H   68.956558   98.026924   79.355034
H   37.439087   11.823286   16.986183
H   91.713058   89.043556   14.736392
H   61.973953   51.216141   80.117622
H    1.067182   22.511803   56.859707
H   94.945900   56.170174   48.594707
H   48.607224    8.243506   50.683666
H   60.724693   16.592052   49.002216
H   43.225571   25.335846   51.605431
H   65.471008   35.257431   98.086029
H   67.033516   77.555336   41.374821
H   31.156092   94.043213   83.430931
H   94.061554   32.634365   17.337116
H   92.072319   39.775276    0.270653
H   45.677849   31.108130   32.695782
H   66.607323   18.577169   79.387474
H   24.208990   76.429428   21.679449
H   13.352839   37.469383   10.090943
H   44.572876   48.428562   37.002586
H   14.585073   14.625105   71.707863
H   44.775936   47.199993   83.506493
H   71.277695   55.538834   41.949051
H   27.386349   36.165161   94.864410
H   69.317146   60.371075    5.230873
H   67.995392   40.547005   79.854523
H   11.427105   72.675575   62.058601
H   82.831078   77.422409    6.131568
H   83.836945   66.626495   77.739143
H   91.625679   97.737694   14.029428
H   13.206051   38.016647   86.132393
H   94.903084   66.953079   70.038406
H    6.437520   25.768530   66.521843
H   96.413017   79.527695   52.907486
H   14.631668   18.290823   43.598236
H   26.647289   94.587036   55.885857
H   36.977707   27.335894   77.988800
H   25.124187   67.076424   37.580444
H   13.224456   30.984619   28.324196
H   26.203827   44.316265   99.970291
H   46.804428   34.214779   30.869774
