100
TIME:    6.550, STEP:  6550
H   74.372635   21.354136   93.149307
H   19.580521   59.800350   91.103798
H   92.355682   45.136848   46.456409
H   82.576004   62.790436   81.135498
H   36.503296   97.768814   88.108459
H   26.446377   94.111992   27.414364
H    9.685353    3.624078    2.671629
H    5.069214   55.259319    6.793950
H   92.616371   56.537613   87.787697
H   95.855629   10.432550   64.176735
H   90.989990   29.795828    8.820705
H    5.844017   52.008213   26.692539
H   26.097702   65.499107   74.180595
H   30.763561   84.886940   55.698940
H   60.162300   84.954552   35.912945
H   38.163177   38.842140   89.333496
H   97.394966   15.203113   69.660683
H   41.135960   76.116119   72.467323
H   47.283245   53.135399    8.442523
H   16.050011   66.712929   62.287071
H   75.590439    4.143458   79.463737
H   90.335220   52.779205   61.485275
H   98.290260   41.351494   44.947861
H   10.468159   15.185274   20.613176
H   95.319405   66.713211   84.913124
H   16.687727   33.025116   74.483986
H   97.264778   70.202957   29.929579
H   79.871445   62.171562   83.281418
H   53.594444   43.358990   47.549652
H   52.148884   28.727531    4.095187
H   73.840492    9.407176   91.163857
H   79.328308   71.539917   92.897774
H   31.729923   89.253532   87.872681
H   54.855110   73.454330   95.810974
H   17.944916   63.743141   23.558084
H   42.017666   98.452461   98.833199
H    8.029580   64.660278   24.579565
H   93.269630   39.085537   84.656837
H   68.596497   38.702141    9.568853
H   46.256382   98.993744   53.375538
H   87.605881   80.928932   96.660866
H   48.215698   67.288971   14.349507
H   67.656586    2.779379   74.586815
H   61.102627   22.584249   21.160261
H   88.491692   73.461105   16.611441
H   93.576744   87.848068    9.771315
H   92.906540   81.048965   88.338310
H   56.589222   62.832855   73.854813
H   56.490616   89.979286   83.192337
H   63.257839   30.428228   25.555567
H   43.051838   37.283630   22.473694
H   23.454159   55.948997   44.069557
H   44.739689   59.987854   22.454481
H   25.009575    0.330646   20.849491
H   19.274254   32.615364   56.060688
H    1.753776    5.643759   69.649338
H   11.494250    0.548711   78.946907
H   38.328766   58.320930   44.843124
H    6.862229   15.523822    8.639702
H   26.786606   31.242962   77.313011
H   72.879570   73.965225    3.707191
H   66.445625   66.975601   98.985870
H   18.739534   60.322914   84.317291
H   92.816269   77.443726   49.309040
H   92.303162   37.706516    5.541690
H   98.970764   16.653008   33.470963
H   62.049789   74.811310   83.295792
H   27.912605   92.138283   79.330475
H   83.353371   79.145111   49.428951
H   63.083557   77.588799   87.940704
H   14.040035   49.739365   83.577705
H   33.889889   34.143372   36.182014
H   79.918716   94.317535   93.804749
H   86.018089   34.870052   13.974936
H   77.972038   37.979565   97.932022
H   80.504524   27.365932   55.196617
H   61.662685   58.882504    6.906826
H   39.711239   22.431429   76.172432
H   75.608452   34.279308   90.759148
H   78.307053   52.210365   56.632805
H   39.046059   97.044418   71.467285
H   32.803993   86.948532   39.031490
H   32.177307   16.657141   53.732986
H    0.779672   72.656761   65.174797
H   33.399132   39.179230   12.803255
H    0.539513   49.647621   96.634949
H    4.614440   27.114433   35.872719
H   61.371025   80.936646   27.664520
H   91.613388   29.478254   74.620247
H   87.230728   39.791821   58.361740
H   92.075615   27.113396   71.785812
H   62.932568   88.102219   58.326729
H    5.321174   24.051540   25.526133
H   80.298897   10.553845   68.455444
H   43.347237   63.021568   66.598236
H   34.924759   37.078644   29.133102
H   42.693871   43.570648   60.492889
H   25.634310   10.553582   47.389519
H   96.686333   65.086693   96.405296
H   46.056118   10.551716   66.759087
