100
TIME:    2.195, STEP:  2195
H   68.883453   20.728531   97.136429
H   40.212364   23.753771   16.459829
H   17.484892   31.820564   97.569420
H   81.845032   42.216820   19.847355
H   75.510635   48.696445    6.189838
H   93.980110   98.830086   96.123650
H   37.930485    9.553762   62.104713
H   47.363625   78.496979    6.655743
H   99.670647   75.253052   61.920956
H   14.856970   47.900307   93.642570
H   96.081482   54.563053   28.316294
H   72.064926   33.714508   36.686058
H    3.639069   28.906990    6.964206
H   46.397804   98.310249   24.280376
H    7.198942   73.961060   45.261200
H   13.268272   19.746529   50.837662
H   47.592728   27.155861   73.202560
H   48.050789   87.957664   23.449055
H   79.451515   70.437836   79.003098
H   33.381248   59.198612   65.778450
H   34.022217   37.698421   97.668381
H   72.817139   46.997879   32.353729
H   56.437614   76.770424   69.548615
H   15.102272   63.007298   44.054756
H   51.077751   12.090973   52.756981
H   36.594326   62.202366   83.434471
H   72.802238   51.234730   43.523724
H   47.333832   58.894894   39.326786
H   58.898987   48.239357   53.413139
H   85.159813   36.513931   57.884670
H    2.447102   18.882845   35.721386
H    4.350890   91.867683   96.061943
H   24.970119    7.885969   95.539886
H   70.845100   72.564133   79.279510
H   26.210773   92.994843   58.387306
H   63.401287   56.913853   13.094228
H   90.328125   24.150892   81.422791
H   73.266487   18.779346   77.335991
H   52.422676   33.590027   31.600016
H   56.448269    6.694282   10.731802
H   85.237190   31.499544   94.057785
H   34.347107   10.369617    5.924696
H   30.147657   76.662704   60.019455
H   39.193138   49.559647   95.349655
H   66.254555   45.286381   43.943459
H   49.769032    4.783039   92.082954
H   58.878109   44.209686   46.526108
H   56.356640   17.982931    4.392092
H   29.192114   50.658787   56.916382
H   71.923088   64.158623   30.143429
H   43.377155   57.730537   76.560577
H   11.805910   60.060360   29.964260
H   54.412605   34.736084   75.388390
H   25.862385   71.395805   28.675062
H   66.017380   50.930943   19.031630
H   96.312668   10.225109   17.903824
H   35.405018   26.211449   64.750206
H   62.612640   69.596893   57.017776
H   63.390617   31.513502   42.972137
H   14.172108   96.502121    1.179505
H   98.162521   76.493355   43.255840
H   21.007500    7.512863   96.036636
H   23.117905   57.470879   82.972580
H   93.765869   53.734749   67.549309
H   19.444675   85.533173   99.976883
H   66.502937   33.152992   75.970879
H   11.459425   24.250193   73.036758
H   28.742256   43.072021   71.136292
H   66.302452   92.067635   22.565491
H   74.853088   58.546608   97.111084
H   52.331627   46.052116   35.821079
H   92.979614   78.677231   17.328913
H   63.873581    9.733753    5.464687
H   81.884850   10.475070   72.753181
H   67.999779   31.766924   67.793808
H   77.550728   48.252144   48.233410
H   66.247681   36.298813   29.869341
H   35.105419    7.194536   35.661854
H   66.769058   47.071323   42.167793
H   91.878334   89.409714   31.819893
H   53.836567   51.989941   11.179003
H    6.015871   58.562576    3.232531
H   56.680622   43.894073   38.962711
H    1.165459   99.990578   62.940857
H   45.451553   11.584913   34.971725
H    0.770125   89.680595   94.210594
H   13.753820   43.758545   28.209486
H   91.290329   29.557388   72.920937
H    1.234007   71.958168   10.241802
H   72.271652   18.966362    2.684874
H   13.851105   91.955475   79.816116
H   40.696453   60.588818   75.345802
H   26.119053   93.403000   88.726120
H   59.383739   46.376148   74.815361
H   18.641083   53.115616   66.525475
H   75.219574    9.053572   54.074387
H   88.373825   93.647209   10.952972
H   14.924428   34.926788   20.914967
H    4.148752   46.312077   61.184692
H   75.558243   22.322594   86.275665
