100
TIME:    9.355, STEP:  9355
H   84.681793   64.123512   90.581253
H   42.113388   11.796913   67.968925
H   40.574734   46.939766   13.526716
H   83.046814   47.225029   27.382746
H   11.370382   22.601486   12.053783
H   82.949585   91.073128    5.202517
H   62.672779   93.031807   22.026363
H   84.601746   97.928970   49.249283
H   23.664116   86.846771   11.222921
H   19.240229   50.708942   74.006813
H   30.075714   42.659683   38.626534
H   98.785027   92.608574   27.029556
H   47.212402   95.743324   95.433655
H   91.878265   76.241158   69.160667
H   94.231819   34.398109    1.019896
H   25.379269   93.506332   56.494202
H   71.833534    0.732330   25.010908
H    1.117948   39.624519   75.234940
H   90.974777   70.808517   56.217968
H   40.474819    7.150034   53.264488
H    9.137527   24.897635    3.333159
H   59.253307   56.502884   22.613586
H   60.839470   18.544928   64.692963
H   49.843914   48.741180   12.290159
H   94.996689   44.262688    5.626049
H    3.495961   50.318100   10.534452
H   55.387581   53.601986   85.583847
H   43.193748   93.099487   76.000175
H   14.586741   97.851097   14.956264
H   59.705116   59.303238   27.083923
H   84.234062   60.935810   69.241272
H   56.437702   94.044327   33.224846
H   29.310738   84.026352   40.569237
H   73.372986   16.392639   77.640434
H   48.135704   51.365211   94.217972
H   85.851868   18.156347   90.016212
H   77.064758   61.934822   45.602680
H   77.331551   87.752525   82.597404
H   50.195705   77.588036   37.743073
H   82.056702   36.399475   74.067337
H   95.903992   77.174118   62.744228
H   11.825512   78.288803   57.548901
H   91.796295   19.606728   77.193626
H   82.000282   69.672707   95.416573
H   45.178673   62.804462   56.646275
H   57.371101   41.343121   21.167055
H   14.830718   33.596012   15.269144
H   56.758602   91.723465   47.411549
H   38.485390   57.668224   71.300873
H   22.145010   73.127098   29.430901
H   43.371555   66.518257   51.259430
H   59.782162   95.664215   59.938576
H    2.913958   76.252197   59.550163
H   60.047356   54.571945   44.625984
H   95.935432   78.432724   79.907913
H    5.247400    2.693172   74.160507
H   89.318573   19.612175   45.725853
H   29.462961   93.422478   72.591576
H   28.087864   34.051689   93.301857
H   41.684856   46.845203   97.532143
H   49.823574   43.519962   85.009926
H   66.890678   40.867050   72.072456
H    9.171184   68.914574   91.970032
H   85.431213   92.723648   73.153229
H    3.638105   13.674450   66.759056
H   26.656620   77.208885   99.324974
H   36.999741   71.786896   18.721619
H   34.152039   52.560127   13.425705
H   23.153475   77.595703   73.504364
H   20.020172   18.522524   82.001816
H   24.961781   58.885098   49.936195
H    2.906206   40.977928   41.763332
H   97.028427   55.572491   21.886570
H   24.270161   57.340992   47.310921
H   13.110833   42.089977   10.603947
H   46.817184    7.140093   66.455246
H   16.416283   16.100880   56.657539
H   71.486946   39.027351   31.091667
H   10.120706   26.040134   22.058992
H   40.746941   99.407509   14.979507
H   93.955223   26.064127   39.119026
H   43.287407    5.144204    4.364992
H    9.597651   63.566929   20.865704
H   93.758339   12.686666    8.983232
H   96.820740   63.707237   40.891251
H   35.986301   52.680000   91.422684
H   91.954140   23.167458   69.625664
H    6.482702   56.479836   98.582291
H   49.828129   73.300941   51.678963
H   39.231213   24.385857   58.633301
H    6.868065   78.572418   31.022606
H   70.474167   99.065262   11.778375
H   85.127121    8.210310   42.441093
H   50.876747   80.690231   58.377071
H   94.847168   11.765156   31.052565
H   66.606232   26.312929   84.250870
H   20.046467    4.543100   99.173096
H   20.219995   49.345051   91.075462
H   63.062401   77.199348   61.459278
H   20.287003   38.570019   96.542618
