100
TIME:    3.535, STEP:  3535
H   78.264801   97.843903   95.909622
H    2.937167   96.406250    0.986777
H   40.518188   28.225639   81.845848
H   82.069946   87.007561   46.398243
H   63.508377   56.103344   69.856354
H   73.206184   97.378365   28.828646
H   67.699440    0.036720   66.894539
H   42.042267   94.424850   83.622078
H   66.730888   46.417603   77.571953
H   78.238869   67.140724   46.117821
H   71.437943    8.480951   99.240746
H   20.918922    0.882141   41.303474
H   18.401390   47.835037   73.778191
H   80.048622   94.180000   26.255039
H   23.500072   54.266739   80.848701
H   59.389908    2.544964   39.605812
H   39.843544   15.784184   95.193344
H   76.681969   22.793785   76.991394
H    0.327578   26.650698   49.598751
H   97.281700   30.746695   57.011864
H   54.504807    4.296270   61.294327
H    1.284241   48.776749   18.240341
H   38.546684   65.872292   31.210800
H   90.601677   79.078461   44.534092
H    3.152909    5.815384   62.646584
H   30.448778   22.278788   57.834602
H   57.252636   95.530655   70.112404
H   34.269039   21.441544   83.620201
H   88.035645   69.814865   90.071480
H   36.540131    3.348283   64.410919
H   55.181202   39.045818   29.700996
H   88.959358   54.841103   72.011406
H   19.357767    9.845142   16.257673
H   27.463993   49.761055   22.826790
H   92.899933   91.701103   39.984695
H   79.912361   62.179111    8.484681
H   18.851841   75.076157   87.009575
H   17.884682   94.256218   71.895744
H   95.858002    4.396864    1.744854
H   30.236275   81.248657   16.160311
H   93.660034   77.477173   25.628767
H   13.915520   70.512466   68.878571
H   41.689861   84.698288   56.809498
H   53.625168   72.016785   26.367830
H   50.020084   92.419037   58.610409
H   32.481281   30.341511   97.521797
H   69.351852   17.083084   59.397354
H   56.428204   31.779394   87.303719
H   68.359055   39.680519    3.460419
H    0.016960   84.544060   36.421619
H   43.274921   28.362389   90.689301
H   76.927307   35.717476   41.996273
H   82.203300   42.505859   97.561623
H   94.832695   49.531433   87.806854
H   59.331406   68.383484   30.413473
H   97.989304    8.815985   72.287064
H   20.355959   87.545601   92.195274
H   62.832756   43.050735   22.502209
H   69.073784   88.130676   40.099346
H   25.745544   99.498886   63.066780
H   82.690956   14.178943   38.779125
H   73.450554   95.038803   35.407120
H   14.051023   66.061089   91.064903
H   85.781792   61.024025   31.165264
H   72.634102   78.509865   24.768507
H   84.184608   66.537514   55.200592
H    3.948458   70.574677   37.732769
H   36.179253   19.707754   35.196041
H   33.086197   95.783783   38.523853
H    2.005988   25.942438   94.289429
H    9.779587   54.878563   19.743587
H   82.489975   34.205490   15.437472
H   76.502716   43.449970   71.112541
H   52.394604   25.677216   93.116875
H   32.608494   33.678074   69.374916
H    9.225265   34.132759   58.067814
H   87.910103   20.155979   53.567616
H   98.061050   19.575140    9.663757
H   31.028860   43.135319   57.124611
H   26.162392   16.429592   16.377670
H   80.053299   65.852859   91.267853
H    6.558841   67.313797   91.182617
H   41.458378   66.262848   66.591187
H   93.352692   14.656429   40.548927
H   80.203888   27.768055    5.073862
H   69.936157   38.900787   87.264236
H    3.249390   46.329628   92.105667
H   12.858633   22.273514   58.979919
H   29.045708   97.349556   99.279060
H   53.797672   63.838303   50.583992
H   68.689362   64.309731    8.114541
H   39.848145   61.356720    0.883712
H   12.054742   33.584724   92.371422
H   88.898781   27.656136   65.164131
H   95.471184   33.085957   97.318321
H   85.898071   56.137764   84.861458
H   82.010864   70.547035   33.888802
H   19.842436   46.336090   99.473167
H   40.314079   52.088291   48.944191
H   58.782070   87.919838   57.202736
