100
TIME:    0.875, STEP:   875
H   58.149574   41.779305   98.344925
H   76.930504   52.187191   33.194912
H   94.798157   36.854580   13.065933
H   81.623474   96.599144   92.201286
H   87.333755   42.892632   41.979836
H   14.447933    0.261332   65.400658
H    7.112437   20.421339   58.878910
H   51.113022   64.299454   27.854317
H   32.118828    2.165628   45.009315
H   50.928185   28.947872   41.954926
H   18.864655    1.450211   55.464401
H   22.443516   67.549950   30.645071
H   87.603561    8.768692   38.161064
H   11.756851    2.379441   23.827770
H   91.144249   91.866150    8.711233
H   66.342331   35.203243   60.407700
H   53.717842   39.862137   53.021690
H   19.842476   52.149460   69.211716
H   58.889442   15.059672    9.462046
H   68.963936   87.186615   75.882301
H   12.352798   69.109100   33.495354
H   46.248585   45.254837   44.751270
H   74.061516   87.505898    7.314610
H   37.744568   47.175999   42.089973
H   98.289665   16.780422   43.018517
H   42.646877    1.538181    7.159773
H   86.626694    6.103539   17.329573
H   58.710159   97.281235   95.695724
H   30.197205   28.478575   15.810696
H   34.543972   69.183609   52.948391
H   50.521763    0.508613   40.171532
H   21.005041   28.337128   18.260918
H   31.991238    4.463510   76.623863
H   15.072965   93.534279   34.888161
H   59.022331   92.776741   78.009476
H   48.633057   53.220837   17.633581
H   63.721935   72.491554   77.411934
H   27.825676   42.939198   84.187675
H   11.382929   61.829323   58.263092
H   80.777855   30.268400    6.876856
H   75.444275   86.204796   62.958813
H   52.981163   51.129486   43.909031
H   18.777723   68.747055   64.674080
H   23.484457   27.435137   66.286018
H   80.755318   97.368942   30.983992
H   66.776283   79.653130   86.749611
H   45.319263   72.943115   35.100044
H   56.286144    4.392385   22.717939
H   90.608208   59.980705    9.569213
H   44.241337   44.067455   22.466461
H   43.477863   85.167702   62.642735
H   47.655830   82.545792   16.619232
H   27.030100   27.082275   52.052086
H   56.427265   92.927177   70.427994
H   71.101898   35.211819    7.831062
H   94.661057   11.612362   62.839737
H   51.721924   64.299217   39.207298
H   60.904236   94.254433   91.016800
H   59.285240   75.739243   44.309444
H    1.278699   95.042526   38.722496
H   14.896133   37.879395   46.173256
H   67.855682   19.800980   55.765381
H   33.583344   47.485374   73.529640
H    3.123437   46.554268    3.382170
H   67.054359   90.959190   77.048759
H   47.592628   98.774330   97.922691
H   17.365751   78.612671    9.306934
H   19.923729   67.579269    8.032660
H    0.510738   86.914413    5.353035
H   48.111023   92.152977   99.890625
H   94.246300   35.866940   51.653172
H    1.819894   22.486137   20.684603
H   49.940430   75.024452   39.312649
H   10.931951   94.007614   51.204750
H    4.359958   29.888720   67.728813
H   46.345692   63.653427   37.053333
H   46.399578   50.706902    6.516916
H   73.089417   93.506493   62.764751
H    3.492256   50.939304   27.445019
H   56.613907   61.301460   45.539093
H   28.004963   38.333935   32.284740
H    6.974636   49.941971   13.610746
H   73.159584   21.861479   13.239195
H   10.361223   87.036476   83.508492
H    9.723904   94.151596   62.931023
H   31.153431   41.195026    2.545805
H   25.594000   39.733299   65.266464
H   70.040939   35.239220   86.645470
H   73.841255   45.453194   21.041393
H   88.974960   73.279907   55.493496
H   59.831150   20.679670   51.940136
H   43.028095   61.314369   50.194473
H   41.425148   53.847481   86.607018
H   31.799868   66.309364   85.815163
H   41.464466   71.353119   36.192223
H   66.192993   61.178154   22.254265
H   93.149277   17.894651   86.866837
H   10.077855   23.687775   42.036079
H   67.029076   40.622074   71.756081
H   93.581894   56.229542   13.410797
