100
TIME:    2.156, STEP:  2156
H   71.520905   24.305038   97.172134
H   41.297218   21.639257   13.999777
H   16.814520   29.014851   98.027046
H   81.838486   43.823570   21.985077
H   75.859955   45.570423    7.247244
H   94.584724   98.872337   92.261497
H   39.974331    6.920238   59.054863
H   50.428947   75.122803   10.236639
H    0.629348   79.002731   64.375969
H   15.922632   47.340324   92.115562
H   99.709167   52.993793   32.072964
H   73.553253   31.759630   39.462166
H    6.119824   31.266533   10.840427
H   48.328880   98.430458   21.312351
H    6.724541   77.444733   47.136040
H   14.836491   23.157600   54.074966
H   50.728271   24.576729   69.651642
H   47.217361   89.854225   24.801254
H   78.843925   68.801926   76.948242
H   34.431885   60.026684   63.123146
H   36.336533   41.581104   98.727051
H   69.078171   46.946106   35.674942
H   56.958321   77.087608   70.664413
H   18.725792   62.539555   46.951370
H   52.472649   15.183968   52.469254
H   36.773151   63.364285   87.090126
H   76.165108   52.856060   42.749805
H   50.624397   57.074505   38.037518
H   58.050980   44.700935   55.256737
H   83.664345   37.479172   54.784237
H    0.912773   15.385336   38.807240
H    1.888449   92.945396   99.672371
H   22.223022   10.739292   92.026459
H   69.197289   76.138260   80.922562
H   27.180328   95.942932   56.012589
H   60.010448   53.850018   13.228272
H   86.587372   25.579264   78.349731
H   74.878593   19.493160   74.583687
H   54.069000   34.439819   35.379433
H   60.121479   10.345399    7.663355
H   87.902611   30.161329   93.138962
H   37.852203    8.619226    4.092517
H   29.811728   76.428833   57.202583
H   41.683601   48.905937   91.536301
H   69.637657   46.824993   40.605911
H   50.272182    4.039173   91.924660
H   58.573124   42.088776   46.151497
H   56.354557   17.581392    1.979012
H   28.052214   53.888653   58.472252
H   71.105431   63.565098   32.871037
H   43.380131   61.495689   76.149368
H    9.910688   63.679417   32.524647
H   53.603577   34.509949   77.653313
H   26.765438   72.031960   26.954203
H   69.121979   47.511837   18.700758
H   96.263870   10.266096   19.231476
H   32.932705   27.336769   61.040993
H   65.516693   73.279922   58.022293
H   60.314880   29.865541   45.966347
H   16.745640   93.504639    2.288695
H   95.702408   78.307198   46.296467
H   22.391537    7.875944   97.801086
H   20.472569   60.130348   85.648117
H   91.087952   53.522598   68.607979
H   17.896690   88.647888   96.345032
H   68.898781   35.091805   73.664894
H   14.588572   22.901861   71.153885
H   31.436241   40.841614   69.271866
H   64.358879   94.869926   25.011620
H   74.062805   56.584885   97.193207
H   53.570015   48.705635   36.289120
H   96.195496   79.971558   14.473509
H   66.416412   11.662746    6.464741
H   82.742973   12.943143   75.071068
H   66.119286   31.711432   64.837387
H   76.628929   45.752457   50.857471
H   62.706772   39.679237   29.179480
H   33.273129    9.744669   33.507915
H   64.898682   47.185879   41.732483
H   93.790962   91.533600   35.179787
H   53.073360   51.586468    8.848099
H    3.089576   58.307877    6.493784
H   54.213070   43.243042   35.248142
H   98.482674   96.653297   66.503082
H   47.350494   14.024422   38.752350
H    1.667785   88.248207   91.502327
H   11.149099   46.594162   26.349821
H   90.662506   32.679840   73.326790
H    0.424566   74.129662   10.560846
H   75.719620   20.571030    1.290776
H   12.255066   89.849442   78.992508
H   37.810551   57.655903   74.602531
H   23.616837   92.234238   85.709000
H   55.614124   44.010357   72.185646
H   19.315472   56.609108   65.629265
H   71.998337   10.593597   56.088776
H   91.469498   91.409065   13.195951
H   14.781234   34.594727   21.539070
H    6.006557   46.143963   64.451492
H   73.136215   23.324284   90.031891
