200
TIME:    0.959, STEP:   959
H   31.564348   60.088787   27.634031
H   34.372253   43.374737   19.086317
H    3.068033    0.608648   80.762810
H   42.078400   85.377602   25.698025
H    7.576317    1.952240   43.321011
H   66.228271   33.300205   44.268101
H   13.776252   54.793976   63.568165
H   19.001015   19.932774   99.551270
H   16.627102   76.727150   30.179277
H   85.551025   64.825867   67.712242
H   37.254448    9.953202   15.682747
H   33.750961   61.213985   47.001476
H   28.821140   10.871092   31.823387
H   70.420441   56.240437   76.912437
H   84.908890   77.479492   41.209507
H    8.343154   96.342087   38.812656
H   18.040854   41.390488   80.534576
H   19.489458   17.732409   30.720009
H   88.947838    3.671953   53.068172
H   92.343719   69.830711    9.598562
H   66.713821   12.649698   92.900154
H   74.022240   76.296898   42.867256
H   73.474487   57.313744   31.884211
H   23.837446   94.614395   89.331528
H   34.497780   41.621044   19.754505
H   18.065912   94.245491   83.209671
H   12.819778   73.223717   77.990631
H   11.011718   99.789719    2.623147
H   41.351486   34.675362   34.128216
H   60.558308   40.026001   73.754486
H   12.422780   81.488045   17.073870
H   18.851280   80.357895   11.305501
H    9.750610   24.456429   81.961494
H   72.630302   64.362350   50.857658
H   13.483739   60.091717   28.749195
H    9.563731   33.530426   87.708580
H    6.900792   58.910423   91.352699
H   97.350639   63.354019   82.840523
H   26.459923   20.654863   60.413738
H   83.187431   36.731785   35.610443
H   80.718246   71.636055   25.389423
H   49.126938   28.029533   18.510740
H   63.756050   71.264984   77.026382
H   35.679489   98.154808   44.462486
H   53.343792   98.231804   70.310493
H   30.941578   95.126801   50.507507
H   93.523422   90.985886   11.942523
H   72.611481   65.539635   21.799820
H   14.886642    1.467463   61.684715
H   36.387497   21.046198   75.294807
H   61.104340   61.395615   99.374474
H   93.653877   48.073345   78.999962
H   71.570641   73.861107   17.322042
H   11.705411   97.356689   92.350586
H   46.765152   60.394600   67.520172
H   96.089165   54.635815    2.192341
H    3.378603   19.466286   41.941929
H   75.263962   75.293816   92.325356
H   13.009544   88.366837   24.515980
H   26.473892   91.951820   53.702782
H   48.090908    1.348555   21.228945
H    2.858894   18.128141   54.578491
H   91.255577   40.100319   60.627502
H   41.547478   66.178131   19.720829
H   82.906395   86.797806   47.331409
H   10.534912   44.494225   45.787216
H   59.317970    7.995493    0.689936
H   93.315041   93.084618    1.506649
H   42.096878   15.569501   52.879303
H   41.098129   54.161690   50.944195
H   58.149746   89.027840   92.513626
H   11.933161    4.923141   39.731850
H    0.313641   38.093319   75.419746
H   31.289730   93.160706   81.504982
H   87.899948   12.510514   33.805367
H   71.487335   93.693298   58.179111
H   92.388596   56.716862   61.974846
H   99.924675   19.062538   23.381371
H   17.002037   61.719902   18.997044
H   57.440498   86.657021   60.163544
H   73.884125   17.950218   90.459030
H   58.252106   55.659073   65.629845
H    8.194548   21.553127   69.242691
H    1.227619   85.370598   17.285097
H   13.304485    6.927031   37.406178
H   44.923046   60.617661   12.815686
H   68.079643    4.282346    3.419715
H   69.352257   91.784561   38.560970
H   87.693344   73.807182   79.760071
H   19.842876   18.275787   46.955364
H   11.103391   41.099678   77.556419
H   79.047134   94.843826   14.056309
H   81.416771    8.753107   75.252327
H   27.786457   68.602264   88.847107
H   43.342880   47.200348   97.885315
H   39.496590   43.784657   95.255737
H   89.058876   89.409248   29.294785
H   99.096252   41.674053   57.885426
H   20.725868   62.575523   55.429279
H   79.705963    9.610105   27.425943
H   41.945522    0.305996    2.796671
H   17.307510   87.534386   61.898560
H   38.083595   10.893272   40.549805
H   56.424202   69.266983   18.715494
H   24.385628   18.023899   48.398315
H   15.888397   91.571159   10.228016
H   87.751480   36.960903   50.428741
H   60.514107   61.880329   90.939674
H   91.068878   31.013836   33.899906
H   27.463575   18.035574    9.056234
H   56.654346   89.818756    1.301720
H   14.863292   81.425720   98.701065
H   44.606220   88.618156   78.296112
H   60.788597    3.896688   56.413998
H   39.856529   11.908321    1.562122
H   84.696060   84.765038   11.370662
H    3.013098   18.567123   92.561996
H   37.123234   62.386406   19.606407
H   46.167248   84.707924   48.005600
H   89.757095   61.025021   76.165527
H   48.058784   26.537334   63.959465
H   87.266869   10.447445   69.336952
H   49.570686   91.498184   45.359138
H   93.484428   41.445950   86.378746
H   55.402107   91.150726   69.033340
H   74.062706   82.025063   11.649385
H   77.514763   52.547073   43.286987
H   59.701645   93.209099   41.075062
H    1.315933   26.457550   68.504974
H    2.594784   20.741457   78.750809
H   77.632919   59.513397   30.888386
H   54.102280   93.182571   26.282772
H   90.089943   17.575298    2.724446
H   65.665031   31.437279   58.555851
H   39.945110   88.369431   23.377510
H   43.208076    0.704081   73.089035
H   70.083076   88.396690   91.131775
H   97.351173   41.771400   71.837830
H   65.106674   54.388618   71.380035
H   43.837418   74.607307   75.479172
H   86.213295   41.924671   38.135666
H   24.138906   62.856968   63.007942
H   31.892193   69.993599   75.132698
H   24.766960    0.501038   90.039009
H   74.098320   45.921455   72.579544
H   72.285278   74.362518   95.410286
H   61.736412   93.629097   42.133720
H   23.019714   46.654770   64.699852
H   84.406586   34.772762   90.796806
H   32.381699   96.524597   63.090385
H   50.878475   73.520752   45.916260
H   64.053802   87.214249   25.620495
H    9.577306    4.953983   78.225304
H   28.916117   17.646452   58.183975
H   42.123604   72.868500   73.760101
H   84.846313   45.311703   76.182884
H   66.837418   82.446831   89.269333
H   56.268360   25.123817   26.568838
H   79.474258   99.024933   75.939926
H   55.618683   27.606972    5.832860
H   61.018574   55.198914   64.298798
H    9.845226   19.330252   29.315151
H   96.168739    3.221650   36.933090
H   37.666542   41.301712   40.438015
H   52.069839   46.485279   16.889141
H   24.301405   41.561874   58.371437
H   62.518982   85.937630   59.843849
H   24.260307   63.645550   77.744308
H    3.843500   25.832001   35.159161
H   59.284679    5.033834   82.306702
H   65.629211   14.184396   35.915733
H   21.323849   38.740932   59.666042
H   51.565060   46.558159   70.193375
H   62.371777   57.341564   90.920784
H   38.019989   89.627808   65.424072
H   23.100853   51.551159   23.993450
H   28.031471   75.383064   16.983624
H    8.102412    9.886551   74.073959
H   57.213043    4.664675   60.726585
H   52.099178   62.167763   96.527756
H   68.290932   10.955634   25.002707
H   33.729885   30.983730   95.864449
H   32.528664   89.407463   20.312050
H   67.138542   26.550728    3.641444
H   94.820946   57.149117   75.434647
H   14.312264   42.290771   87.552711
H   56.387970   92.209213   15.196491
H   55.878639   97.680244   50.685596
H   85.795723   64.379372   74.760742
H   62.688343   54.362125   74.787064
H   82.166496    7.236336   74.167000
H   41.758709    4.468863   15.466328
H   20.071178   34.629505   74.278244
H   22.542725   92.225960   47.803322
H   60.220249   22.140696   19.464361
H   77.083511   12.147731   19.715723
H   14.240552    5.165219   27.734785
H    8.013455   83.116364   26.689434
H    2.325311   13.623714   45.860863
H    0.508590   10.633172   87.759636
