100
TIME:    3.501, STEP:  3501
H   80.564117    0.961871   95.940750
H    3.882969   94.562958   98.842087
H   39.933762   25.779633   82.244804
H   82.064240   88.408318   48.262028
H   63.812912   53.378094   70.778259
H   73.733284   97.415199   25.461512
H   69.481514   97.741035   64.235695
H   44.714600   91.483261   86.743690
H   67.566673   49.686554   79.711998
H   79.168037   66.652534   44.786324
H   74.600540    7.112923    2.515810
H   22.216698   99.177917   43.723671
H   20.564133   49.892075   77.157646
H   81.732124   94.284798   23.667530
H   23.086460   57.303787   82.482918
H   60.756943    5.518784   42.428078
H   42.577614   13.535386   92.098190
H   75.955650   24.447197   78.170105
H   99.797981   25.224260   47.807598
H   98.197899   31.468733   54.696983
H   56.522415    7.681140   62.217010
H   98.024628   48.731613   21.135757
H   39.000633   66.148811   32.183655
H   93.760643   78.670685   47.059345
H    4.368897    8.511841   62.395485
H   30.604807   23.291872   61.021324
H   60.184628   96.943863   69.437965
H   37.137737   19.854538   82.496483
H   87.296356   66.730087   91.678719
H   35.236389    4.189839   61.707977
H   53.842960   35.997097   32.390968
H   86.812569   55.780388   75.158958
H   16.962862   12.332653   13.194684
H   26.027309   52.876961   24.259064
H   93.745056   94.271233   37.914429
H   76.955727   59.508076    8.602059
H   15.590802   76.321274   84.330498
H   19.289848   94.878258   69.496300
H   97.292999    5.137579    5.039638
H   33.438633   84.431488   13.485254
H   95.983734   76.310394   24.827742
H   16.971245   68.986679   67.281189
H   41.396999   84.494400   54.353764
H   55.796341   71.447144   23.043497
H   52.969196   93.760651   55.700985
H   32.919926   29.693012   97.383797
H   69.086227   15.233956   59.070770
H   56.426388   31.429335   85.199989
H   67.365036   42.496300    4.816747
H   99.304131   84.026817   38.799534
H   43.277515   31.644958   90.330811
H   75.274933   38.872551   44.228405
H   81.498253   42.308716   99.536171
H   95.620232   50.086288   86.306488
H   62.038498   65.403503   30.124372
H   97.946762    8.851782   73.444504
H   18.200609   88.526649   88.961601
H   65.364494   46.261581   23.378071
H   66.392113   86.694122   42.709682
H   27.989090   96.885696   64.033821
H   80.546242   15.760047   41.429928
H   74.657280   95.355270   36.945618
H   11.742757   68.381157   93.396385
H   83.447197   60.839073   32.088467
H   71.284706   81.225258   21.602148
H   86.273293   68.227760   53.190247
H    6.676400   69.399078   36.091290
H   38.527855   17.763166   33.570644
H   31.391541   98.226807   40.656376
H    1.317169   24.232347   94.361023
H   10.859272   57.191887   20.151493
H   85.293564   35.333878   12.948146
H   78.719543   45.131657   71.984123
H   53.143230   27.828804   95.137077
H   30.969267   33.629566   66.797523
H    8.421451   31.953547   60.355457
H   84.823250   23.102886   52.966328
H   96.463669   21.798323    7.786026
H   29.398535   43.235188   56.745110
H   27.829811   18.281315   19.306808
H   79.388199   65.501114   89.235718
H    4.007712   67.091751   94.025635
H   39.307178   65.695282   63.352848
H   91.013428   11.746941   43.654198
H   81.859375   29.894871    8.369726
H   70.718506   37.651779   84.903183
H    0.978591   48.801704   90.484421
H   12.311430   24.995651   59.333481
H   28.340012   99.242653   99.557137
H   56.803852   65.237015   49.368706
H   67.297943   62.473919    7.396523
H   37.332230   58.799820    0.235817
H    9.875333   32.564507   89.742149
H   85.612709   25.593781   62.871689
H   96.058983   36.131565   96.537010
H   83.089813   57.480415   86.617592
H   84.709656   68.595833   35.844154
H   19.717665   46.046600    0.017376
H   41.933769   51.941730   51.792137
H   56.670300   88.792458   60.478172
