100
TIME:    1.353, STEP:  1353
H   25.824240   97.944412   97.907303
H   63.634087   78.103371   63.347073
H    3.011810   71.244377    7.453385
H   81.703705   76.906151   66.002312
H   83.052353   81.206444   29.018929
H    7.035650   99.742287   12.737507
H   82.059227   52.699612   96.259132
H   13.543167    5.654327   83.966133
H   20.368675   56.207977   14.920154
H   37.865166   35.810432   60.674210
H   74.402267   20.683140    9.422018
H    4.198322   91.509758   96.621513
H   57.196938   79.848915   90.651848
H   88.089241    0.905742   60.205105
H   96.957329   49.170094   85.735062
H   47.123428   93.392693   20.729965
H   15.288107   71.473038   96.543205
H   30.057304   28.904434   52.640427
H   66.333809   35.113701   34.643551
H   56.064217   77.081161    8.451120
H   83.987701   21.521736   20.521893
H   92.082207   45.885742    4.048995
H   67.679527   83.618355   93.638428
H   93.333138   52.908848    6.588107
H   81.193230   78.869362   46.545021
H   40.455120   87.293854   62.355087
H   45.408340   86.234756   26.815031
H   18.379639   19.593166   11.495028
H   40.590729   71.846771   93.215935
H   52.873043   57.353226   90.948570
H   69.324928   43.374954    2.347770
H   51.186375   15.131822   74.010094
H   65.662430   69.490395   19.685881
H   35.269264   49.728310   14.751757
H   47.140892   56.643745    7.117759
H   90.192566   90.768814   15.988845
H    9.569665   54.986671   15.076261
H    8.070320   34.190403   17.919437
H   89.894363   51.625435   12.447780
H   35.756126   85.519981   44.485607
H   42.778160    2.607979   74.220627
H   10.021263   72.582451   66.366333
H   22.895018   71.613480   99.202461
H   92.961601   35.446228   13.023547
H   39.292801   78.507431   71.889969
H   60.631931   88.723183   88.665413
H   50.366505   98.726349   39.184517
H   56.311672    9.313810   52.293896
H    4.581849   20.394142   90.502151
H   54.266529   51.342922   89.034508
H   43.441395   39.020454   67.682678
H   70.886269   38.190670   85.239883
H   36.945885   29.853882   24.289120
H   45.359074   85.130211   91.521378
H   33.047691   77.116638   11.887272
H   95.259140   11.110008   46.567490
H   82.025772   50.506828   84.668938
H   25.310631   49.113716   78.705032
H   96.985924   95.935501    7.612400
H   69.733566   31.784048   25.127037
H   45.049297   15.651826    8.905916
H   50.890533   15.351688   34.135910
H   66.007263   14.888866   40.737160
H   35.947197   49.154472   90.405724
H   86.025276   52.782887   21.563101
H   18.228188   75.011452   26.185270
H   79.014664   95.140198   32.385998
H   86.904701   94.916061   30.883825
H   24.335136   52.568375   75.375404
H   57.793411   16.194704   98.884094
H   79.068108    3.342287   45.920322
H   62.405010    6.621798   55.682838
H   18.773670   51.380222   27.055584
H    0.411638   63.760605   22.795784
H   27.405842   30.568857    3.964074
H   57.647282   94.287010    4.890492
H   89.798576    9.277678   14.974874
H   95.546722   62.252777   89.160828
H   26.405329   49.538914   32.775154
H   33.171951   35.266594    4.359074
H   37.359135   43.279064   60.854168
H   42.840137   53.063675   73.640335
H    3.406311   29.838964   58.766422
H   43.244717   27.939554   39.848396
H   86.449203   64.254715   16.594139
H   20.150883   58.754612   35.739799
H   57.518532    4.978813   88.059280
H   77.735794   96.970322   81.678459
H   83.760689   18.839380   17.130146
H   46.715256   53.610725   72.582634
H   79.392860   46.489231   62.034618
H   78.395256   97.265022   59.300659
H   72.095161   68.169724   23.586851
H   78.000710   95.301826   18.044903
H   33.200703   28.536072   47.176537
H    5.673862   42.302055   97.564529
H   55.207443   45.326260   59.376877
H   11.832902   27.757660   34.388634
H   44.258141   42.682545   31.716602
H   23.267288   43.950596   67.372627
