100
TIME:    5.468, STEP:  5468
H   47.543617   20.578243   94.139908
H   49.461922    1.165453   22.880013
H   73.748901   67.293823   59.160862
H   82.394394    7.368134   40.443382
H   46.194672   11.041735   17.445362
H   43.228802   95.284203   20.260412
H   66.390724   30.563152   18.057802
H   90.112274   61.652355    6.139628
H   19.214058   60.567490   55.896805
H   25.413816   94.895744   21.810179
H   91.634995   86.259537   13.044411
H   47.143806   97.773430    3.711277
H   95.142563   30.930237   81.693779
H   84.338448   88.221962   73.357964
H   47.010445   81.603836   87.930573
H   81.667053   33.477859   79.149139
H   84.403023   43.635899   71.161957
H   17.997183   28.764267    9.976984
H   30.434395    7.741136   51.436390
H   45.198433   89.694862   88.619514
H   39.797844   11.860168    8.833786
H   86.602829   51.342834   53.627563
H   12.737884   50.151329   75.904129
H   11.001591    2.241427    0.971335
H   34.016266   52.520790   76.922279
H   21.620092   65.013000   76.231201
H   90.567108   15.178169    8.459036
H   71.167091   11.667442   47.516930
H   30.067680   45.191502   98.697662
H   10.661089   55.506767   18.078869
H   31.254902   12.382012   76.768181
H   11.010042    1.439192   93.063927
H   55.516651   68.417458   90.397575
H    9.137139   72.613182   41.392357
H   44.852188   45.581284   57.689972
H   47.961277   13.705744    2.235392
H    4.251743    4.284695   39.322247
H   37.989460   58.889294    8.303858
H   14.265258   62.278435   14.422537
H   48.168606    0.286911   68.246300
H   61.552536   43.802414   71.169411
H   40.187798   57.265915   59.686634
H   58.339924   96.289917   96.433815
H   30.193447    4.423036   15.368350
H   82.346870   16.153603   24.022207
H    7.541536   67.210556    5.375525
H   84.453415   22.206604   77.953514
H   56.531437   51.688599    6.906747
H   24.865692   79.589783   26.352745
H   40.558163   13.957808    1.226115
H   43.127445   41.743668   11.068513
H   70.867134   56.350567   15.097282
H   22.294331   53.714050   85.296410
H   50.063515   17.986275   73.104332
H    5.424294   37.794300   46.856358
H    0.406094    6.781918    6.483185
H   42.898743   31.770103   76.039711
H   18.897049   60.502602   72.712021
H   21.526602   69.805504   91.701744
H   98.188095   48.077442    8.087654
H    4.625874   24.285084   88.067741
H    4.847463   77.046707   47.945595
H   45.283260   34.157028   58.513275
H   18.516922   71.549652   78.684479
H   49.357811   24.123672    4.779758
H   65.438103   70.442619   69.494164
H   48.860870   37.405499   31.058044
H    2.653493   30.258646   27.604620
H   29.426390   56.890724   17.288506
H   41.166519   23.166283   90.219086
H   48.399406   23.357941   96.554573
H   23.105820   70.052643   56.964127
H   50.467773   47.835602   21.547905
H    9.838711    3.349817   78.263756
H   25.805964   36.435879   15.909485
H   54.927589   58.021439   28.002806
H   63.414921   52.616863   87.752602
H   88.876907   93.181114   16.416132
H   23.723896   37.457485   78.690331
H   31.366558   11.150714   49.848114
H   17.871973   85.850632    6.798896
H   51.599480   79.931641   29.542933
H   63.739525   98.563660   50.688953
H   26.339941   80.067551   63.998631
H   86.082573    6.857450   17.690987
H   25.444553    9.902068   21.497894
H   32.350090    5.784724   84.278809
H   43.969475   67.519714   38.883072
H   69.159775   89.723106   83.469612
H   82.894196   84.307297   19.685728
H   47.795769   68.686493   48.935955
H   82.875526    6.725444   37.713982
H   35.962708   91.586800   41.853413
H   75.728523   44.910351   95.498055
H   62.053078   59.940441   41.734165
H   45.555984   79.806549   85.019485
H   28.577948   81.478096   22.719650
H   26.936041   62.794434   68.532661
H   48.230103   60.420696   87.034554
H   78.849060   38.316486   70.991592
