100
TIME:    6.997, STEP:  6997
H   44.143387   80.362495   92.740067
H    7.236771   84.021172   19.288097
H    0.042574   77.296349   41.207897
H   82.651031   44.374603   56.634594
H   32.499557   33.597744   75.988113
H   19.513157   93.627724   71.683212
H   86.257233   33.808704   37.627666
H   69.935890   93.931793   65.753502
H   81.628258   13.560468   59.651867
H   83.646614   16.851549   81.678596
H   49.411133   47.781956   65.762123
H   88.784363   74.414139   94.875420
H   97.574150   38.464947   29.764153
H    8.631880   83.509163   89.714500
H   65.591560   45.026299   14.417576
H   20.189568   99.745667   52.229004
H   61.449989   44.767368   10.352868
H   50.695141   54.364975   56.972290
H   54.243748   71.887421   31.990917
H    4.008102   57.220982   92.720940
H   49.064819   59.644714   67.329750
H   33.189545   53.372604   23.419067
H   92.322166   37.716072   32.159088
H   68.936592   20.532686   87.415558
H   79.331734   31.262993   88.214333
H   14.615826   19.829311   32.433762
H   58.720654   51.621155   38.799870
H   42.155067   83.036018   98.055008
H   63.313911   83.914742   26.419641
H   69.289246   17.664391   39.629631
H   91.431023   49.489716   55.798637
H    7.552155   59.188999   51.516716
H   63.217571   56.548378   28.141973
H   73.741570   32.489334   76.979080
H    6.819730   29.898933   50.755539
H   80.875069   33.464249   97.428139
H   50.901909   48.290649   59.801548
H   74.792412   30.904133   16.200836
H   49.727917   28.962744   66.251038
H    4.154613   57.148319   88.543991
H   57.056061   96.268639    7.191476
H   10.544966   69.041885   37.169407
H   71.503448    5.460855    6.875364
H   32.561497   30.086996   64.864250
H   49.717392   55.824413   54.862492
H   87.806450   96.373917   11.587320
H   96.398727    5.358171   92.628517
H   56.614681   67.436813    1.512630
H   69.557076   52.957661   65.363083
H   72.642822   37.232250   94.301491
H   43.021145   94.127991   27.185078
H   45.182102   14.469040   14.727035
H   54.012402   62.579712   96.493477
H   14.659195   93.039215   40.573929
H   83.683121   71.789253   59.863216
H    2.310514    5.173558   54.432404
H   39.830898   87.650780   21.460503
H    5.044955   16.107107   33.329819
H   42.115128   34.413670   74.324730
H   97.289803   65.601974   64.599266
H    1.076290   53.177574   68.853806
H   50.580727   62.814987   78.762558
H   49.087399   29.820717   53.665161
H   23.510738   79.878708   37.171642
H   10.044902    2.005036   47.169376
H   71.510712   94.431847   59.901093
H   26.186384   90.266968    4.876747
H   97.034950   17.703264    0.699661
H    5.630425   47.026535   21.392551
H   72.141075    0.069760   86.999451
H   99.845161   19.325958   78.216652
H   97.067619   19.289124   68.926292
H   50.773956   72.209000   82.346008
H   76.175850    6.579775   87.415985
H   99.524818   38.617886   31.818836
H   91.069756   56.015919   25.120443
H    2.259437   20.192204   14.834219
H   60.712109   93.203423    0.856561
H   97.045845   32.966328   95.745064
H   56.385391   27.860252   18.123253
H   47.793579    1.669222   98.183884
H   66.344917   89.847321    1.635795
H   60.452431   24.132605   96.301666
H   31.532402   10.907375   24.349529
H   11.633635   11.217711   69.471718
H   90.253769   66.067978   27.676270
H   34.468601   94.613564   57.187340
H   68.560020   45.167210   23.029869
H    0.889633    4.590912   70.964363
H   47.710308   21.399860   74.341385
H   10.368824   51.248711   81.225632
H   96.006042   21.720554   66.843483
H   33.974567   37.464405   60.093330
H   23.499908   37.672691   98.596024
H   35.619408   22.980774   76.870178
H   71.845093   19.427942    6.044737
H    7.213680   69.223221   34.785751
H   24.771494   32.671284   38.416916
H   75.392174   67.016945   58.966129
H   73.820900   99.081192   23.696949
