100
TIME:    9.369, STEP:  9369
H   83.735016   62.839638   90.568436
H   41.726730   12.555569   68.851616
H   40.815380   47.946999   13.362360
H   83.049164   46.648247   26.615358
H   11.244932   23.723648   11.674202
H   82.732544   91.057961    6.588984
H   61.939091   93.977089   23.121181
H   83.501373   99.140213   47.963806
H   23.319969   85.500732   10.341673
H   18.857790   50.909962   74.554970
H   28.773468   43.223007   37.277931
H   98.250755   93.310326   26.033058
H   46.319672   94.895882   94.042328
H   91.185059   76.198006   70.226006
H   94.401863   33.147560    0.346650
H   24.816319   92.281845   55.332092
H   70.707741    1.658298   26.285383
H    1.417344   38.943275   74.749588
H   91.192886   71.395767   56.955502
H   40.097668    6.852724   54.217674
H    8.306721   23.503904    2.953144
H   60.595501   56.521469   21.421356
H   60.652550   18.431120   64.292419
H   48.543056   48.908661   11.250376
H   94.495956   43.152382    5.729389
H    3.429918   49.905380    9.216986
H   54.180290   53.019970   85.861557
H   42.012520   93.752960   76.462883
H   14.891181   99.121300   14.294514
H   60.241951   58.956741   28.196846
H   84.784996   62.191166   68.133636
H   57.321674   93.657455   31.928795
H   30.296928   83.002029   41.830467
H   73.964508   15.109638   77.050621
H   47.787285   50.305214   95.069687
H   87.068878   19.252928   89.972206
H   78.407593   61.422127   46.705830
H   76.752846   87.496391   83.585411
H   49.604717   77.282982   36.386353
H   80.738007   35.088791   75.168777
H   94.947174   77.654556   63.074062
H   10.645645   78.343704   58.263577
H   91.916779   19.690735   78.204918
H   81.106483   69.907692   96.785469
H   43.964333   62.252140   57.844379
H   57.190483   41.610149   21.223932
H   14.940173   34.357471   15.403593
H   56.759457   91.867661   48.277790
H   38.894585   56.508785   70.742462
H   22.438848   73.340294   28.452026
H   43.449528   65.172646   51.285706
H   60.462551   94.365173   59.019569
H    3.204345   76.333374   58.737007
H   59.723183   54.343475   45.243782
H   94.820747   79.659561   80.026901
H    5.264837    2.678445   73.683914
H   90.206177   19.208214   47.057365
H   28.420534   92.100365   72.230980
H   29.192028   34.643318   92.227119
H   40.761044   47.921329   97.133949
H   50.706799   42.868946   83.918526
H   66.393791   40.736740   71.439064
H   10.121646   67.959251   91.010010
H   86.392517   92.799911   72.773193
H    4.193797   12.556240   68.062798
H   25.796627   76.512901    0.152767
H   35.876511   72.270966   19.397575
H   33.184967   53.360786   14.094986
H   23.851274   76.589752   72.626373
H   20.304504   19.225664   81.972122
H   24.517178   57.932446   49.768288
H    1.753356   40.513084   42.789471
H   96.115616   54.880032   21.527576
H   23.962009   56.454990   46.479073
H   13.785188   42.110592   11.665413
H   47.148193    8.037364   65.513168
H   17.687820   14.889103   56.905876
H   72.144691   38.111977   31.864876
H   10.792043   25.999012   22.215258
H   40.060356   98.644875   13.773418
H   94.229301   26.208963   39.955788
H   44.337898    5.235087    3.193758
H   10.483171   63.801060   22.199032
H   94.721565   13.884691    7.704568
H   96.139069   62.831490   39.534103
H   35.664051   53.194298   92.394882
H   92.889168   22.149544   70.293236
H    6.707848   55.359596   98.437241
H   50.118656   72.521431   51.564461
H   37.993374   23.809822   59.133713
H    7.441029   79.328430   31.318260
H   71.510025    0.118207   12.045083
H   86.024551    8.630400   43.523735
H   52.150795   81.533615   59.442410
H   94.605133   10.511082   31.374228
H   67.762573   25.760126   83.527756
H   18.935253    5.346509   98.367950
H   20.192972   50.037724   90.794334
H   62.395470   77.259804   60.286594
H   21.156555   38.210812   95.194016
