100
TIME:    9.025, STEP:  9025
H    6.998464   94.386269   90.883377
H   51.227463   93.914825   47.160610
H   34.902355   23.198318   17.400600
H   82.991425   60.820610   45.472099
H   14.327421   96.150803   21.000710
H   88.065552   91.430641   72.522552
H   79.969185   70.750160   96.219917
H   10.539093   69.378250   79.548515
H   31.776146   18.575317   31.995207
H   28.254854   45.970631   61.085976
H   60.771515   29.381580   70.415016
H   11.380836   76.067284   50.519432
H   68.255341   15.717260   28.228065
H    8.217818   77.258308   44.047123
H   90.223640   63.875343   16.889099
H   38.648178   22.369591   83.886780
H   98.370094   78.903938   94.969704
H   94.058701   55.682411   86.675369
H   85.833633   56.964924   38.833248
H   49.364819   14.158052   30.796534
H   28.720421   57.750832   12.290659
H   27.615885   56.064804   50.716156
H   65.245445   21.227537   74.134338
H   80.505630   44.793427   36.799053
H    6.799264   70.433563    3.190121
H    5.052580   60.046494   41.589413
H   83.843391   67.320328   79.037827
H   71.037628   77.696198   65.093498
H    7.410692   67.910606   30.554676
H   47.051155   67.470657    0.850676
H   71.247765   31.345253   95.349823
H   35.601215    3.162675   63.774620
H    6.065081    8.170761   10.840230
H   59.429962   46.635254   91.543175
H   56.348442   76.350868   74.141830
H   57.165195   92.308731   91.053505
H   45.413712   74.019783   19.599874
H   90.972450   93.789970   59.309181
H   64.126122   84.778587   69.722900
H   13.139677   67.293907   48.103271
H   18.456629   65.849503   54.969570
H   39.636124   76.994705   40.702969
H   88.956329   17.626556   53.357166
H    3.068743   64.133766   63.149792
H   73.803268   75.821205   28.405394
H   61.628532   35.048870   19.826380
H   12.250705   15.648474   12.099989
H   56.738461   88.324570   26.993000
H   28.840080   84.999794   84.463409
H   15.218746   68.101768   52.505482
H   42.881893   98.337563   48.566208
H   43.744411   26.285633   81.600868
H   96.070091   74.338745   78.715378
H   67.689789   59.957306   30.063774
H   22.211117   49.513161   77.103195
H    4.836386    3.040299   85.394485
H   68.396484   29.134117   14.340167
H   54.035583   24.587492   81.091331
H    2.061078   20.107222   18.635881
H   63.460445   21.479374    6.918114
H   29.004892   58.865345   10.736740
H   78.603020   43.938644   87.002419
H   86.768082   91.432884   14.599121
H   62.771778   90.926010   82.111206
H   90.540649   40.032253   36.028004
H   46.928810   93.614220   79.812798
H   63.475876   60.377476    2.788443
H   56.947296   33.687447   97.649796
H    6.705669    1.307396   94.199860
H   13.318053    1.947970   82.701736
H   35.442120   81.338524   53.894020
H   30.080706   51.934959   17.575035
H   18.545044   71.895958   30.348560
H   31.533726   78.227028   66.918770
H   97.215103   41.604061   85.583282
H   39.014832   85.990959   88.661362
H   86.445145   44.664188   50.803886
H   55.984249   60.604042   12.866035
H   94.295769   27.009449   18.375597
H   56.930717   17.384680   43.409355
H   87.494804   22.650126   19.395363
H   18.525139    3.001956   31.972792
H   88.725227   58.048130   89.438179
H   71.053719   84.447853   39.122768
H   12.888702   84.352341   72.881149
H   43.582203   40.557274   68.506577
H   69.914192   47.161140   53.890038
H    1.175777   82.885475    2.002764
H   42.979984   91.675117   54.377937
H   68.408463   37.963814   46.837875
H   93.362846   60.752598   24.053612
H   46.057507   74.245773    5.491552
H   63.973408   98.308678   16.921686
H   19.496851   60.709217   35.339413
H    0.552374   41.325474   23.470510
H   39.349609   39.343994    1.295747
H   46.240044   85.605110   18.152195
H   20.856974   33.017765   97.702049
H   78.782921   75.774330   89.098824
H   99.789886   47.037045   28.333050
