100
TIME:    9.349, STEP:  9349
H   85.087555   64.673744   90.586746
H   42.279099   11.471775   67.590630
H   40.471600   46.508095   13.597155
H   83.045807   47.472221   27.711626
H   11.424147   22.120560   12.216461
H   83.042603   91.079628    4.608317
H   62.987217   92.626686   21.557156
H   85.073334   97.409866   49.800201
H   23.811607   87.423645   11.600599
H   19.404131   50.622791   73.771889
H   30.633820   42.418259   39.204506
H   99.014000   92.307823   27.456627
H   47.595001   96.106514   96.029938
H   92.175354   76.259651   68.704094
H   94.158943   34.934059    1.308430
H   25.620533   94.031113   56.992249
H   72.316017    0.335487   24.464705
H    0.989635   39.916481   75.442947
H   90.881302   70.556839   55.901882
H   40.636456    7.277452   52.855980
H    9.493587   25.494947    3.496023
H   58.678082   56.494919   23.124542
H   60.919579   18.593702   64.864624
H   50.401424   48.669403   12.735781
H   95.211288   44.738533    5.581760
H    3.524265   50.494980   11.099081
H   55.904991   53.851421   85.464828
H   43.699989   92.819427   75.801872
H   14.456267   97.306725   15.239872
H   59.475044   59.451736   26.606956
H   83.997948   60.397800   69.715973
H   56.058857   94.210129   33.780296
H   28.888084   84.465347   40.028709
H   73.119476   16.942505   77.893211
H   48.285027   51.819496   93.852951
H   85.330292   17.686384   90.035072
H   76.489258   62.154549   45.129902
H   77.579567   87.862297   82.173973
H   50.448986   77.718773   38.324524
H   82.621857   36.961197   73.595291
H   96.314056   76.968216   62.602871
H   12.331169   78.265274   57.242611
H   91.744659   19.570724   76.760216
H   82.383339   69.571999   94.829903
H   45.699104   63.041172   56.132801
H   57.448509   41.228680   21.142679
H   14.783809   33.269672   15.211523
H   56.758236   91.661667   47.040302
H   38.310020   58.165127   71.540192
H   22.019079   73.035728   29.850418
H   43.338139   67.094948   51.248169
H   59.490566   96.220947   60.332436
H    2.789506   76.217407   59.898659
H   60.186287   54.669861   44.361214
H   96.413155   77.906937   79.856918
H    5.239927    2.699483   74.364761
H   88.938171   19.785301   45.155205
H   29.909716   93.989098   72.746117
H   27.614651   33.798134   93.762459
H   42.080776   46.384007   97.702797
H   49.445049   43.798969   85.477669
H   67.103630   40.922897   72.343910
H    8.763843   69.323997   92.381470
H   85.019226   92.690964   73.316101
H    3.399951   14.153683   66.200310
H   27.025188   77.507164   98.970207
H   37.481125   71.579437   18.431923
H   34.566498   52.216988   13.138870
H   22.854418   78.026825   73.880646
H   19.898315   18.221178   82.014542
H   25.152325   59.293377   50.008156
H    3.400285   41.177147   41.323559
H   97.419632   55.869259   22.040424
H   24.402225   57.720707   47.667427
H   12.821824   42.081142   10.149033
H   46.675323    6.755549   66.858994
H   15.871341   16.620213   56.551109
H   71.205055   39.419655   30.760292
H    9.832990   26.057758   21.992022
H   41.041191   99.734352   15.496403
H   93.837761   26.002054   38.760414
H   42.837196    5.105254    4.866947
H    9.218142   63.466587   20.294277
H   93.345528   12.173227    9.531233
H   97.112885   64.082565   41.472885
H   36.124409   52.459587   91.006027
H   91.553413   23.603706   69.339561
H    6.386211   56.959938   98.644455
H   49.703617   73.635017   51.728035
H   39.761715   24.632729   58.418839
H    6.622509   78.248413   30.895897
H   70.030228   98.613998   11.664071
H   84.742508    8.030272   41.977104
H   50.330727   80.328781   57.920498
H   94.950897   12.302616   30.914709
H   66.110657   26.549845   84.560776
H   20.522701    4.198781   99.518158
H   20.231577   49.048191   91.195946
H   63.348228   77.173439   61.961857
H   19.914337   38.723965   97.120590
