100
TIME:    1.685, STEP:  1685
H    3.373066   67.498245   97.603348
H   54.398918   96.102577   84.289574
H    8.718489   95.130180    3.555463
H   81.759430   63.228172   47.803280
H   80.078659    7.817693   20.017166
H    1.887157   99.382607   45.617168
H   64.657799   75.117577   22.222054
H   87.448616   34.375751   53.483627
H   12.207481   24.287628   94.021889
H   28.792555   40.577461   73.674004
H   43.520432   34.041965   77.441269
H   91.527664    8.150997   72.989006
H   36.079659   59.762550   57.652946
H   71.650337   99.882210   85.469215
H    0.995124   19.516209   69.777420
H   33.774734   64.354851   93.171646
H   88.595993   93.428726   26.770372
H   37.152122   12.759226   41.130661
H   71.506111   49.042442   52.133633
H   47.120338   70.029404   31.055246
H   64.286346   88.470093   11.510891
H   23.916752   46.323944   75.780861
H   63.246849   80.918221   84.139832
H   62.486763   56.890659   81.931717
H   69.318718   52.537827   48.994392
H   38.932812   77.400116   31.237654
H   16.778980   72.435196   33.403255
H   90.366684   35.089809   22.469072
H   47.809662    1.968671   77.521721
H   65.603691   49.136307   17.341244
H   82.384865   73.147354   76.076019
H   72.149139    5.959414   43.275169
H   89.046707   45.199318   49.595062
H   49.296791   19.302406    0.765518
H   38.888512   31.547188   27.333305
H   19.058983   16.849051   14.847119
H   41.412384   42.828468   41.236637
H   94.347878   28.113834   41.346775
H   74.970169   44.538216   80.627945
H    4.485632   54.439793   70.607376
H   20.090446   13.999812   82.042404
H   80.182983   87.481316   81.964294
H   25.754728   73.604385   23.182976
H   71.760735   41.011139   45.484158
H   10.494644   65.406967    0.299649
H   56.348698   95.055580   90.012947
H   53.872120   16.636293   42.021431
H   56.329403   12.732038   72.836189
H   14.285726   92.898155   77.259842
H   61.229633   56.396175   65.812340
H   43.416065    6.967402   71.183228
H   87.021217    7.383296   63.446239
H   43.833000   31.778931    5.006969
H   37.671543   79.714745    6.171515
H    6.616489    6.220666   14.704556
H   95.674545   10.761093   35.265427
H    3.074381   40.927177   16.245108
H    0.588703   17.760059   70.153763
H   23.169441    9.963519   82.125381
H   47.825344   57.303608   15.684188
H   65.991806    0.212808   83.019737
H   39.107208   12.260845   19.112930
H   88.525269   92.248558   17.960793
H   58.746361   50.960472   81.393456
H   99.201729   26.265614   52.482502
H   97.833199   58.506691   45.815701
H   52.378067    6.618646   48.414562
H   63.971291   13.903947   46.755344
H   40.882957   28.712967   54.553329
H   64.518616   32.893303   98.184998
H   68.525932   80.753166   41.938511
H   35.031322   95.603043   79.989983
H   97.125992   34.959049   18.542309
H   93.106468   42.749710    3.064026
H   43.411972   31.041254   29.132771
H   65.496437   15.564905   82.550163
H   19.941690   80.502914   20.848078
H   11.144694   40.542786    7.495252
H   42.319908   48.566257   36.478340
H   16.890091   17.184839   75.756966
H   43.856174   46.713757   80.697365
H   67.751404   55.231888   45.879105
H   24.412632   35.380585   90.387878
H   66.084175   56.349224    9.523811
H   70.283859   43.487015   84.410660
H   12.508945   70.949364   58.794792
H   79.692055   80.839691    3.890388
H   83.080338   70.389450   78.228249
H   90.650337    0.354606   14.413918
H   17.361534   39.950478   84.452080
H   92.979652   64.415039   69.045853
H    2.959944   22.233812   65.626106
H   93.397346   78.119186   49.271469
H   10.088888   15.439919   40.429451
H   27.460014   98.796783   54.805809
H   33.095703   29.191732   80.416397
H   28.854691   64.379173   40.283432
H   13.051888   30.584442   29.076321
H   28.442631   44.113667    3.907199
H   43.885574   35.422123   35.396553
