100
TIME:    7.601, STEP:  7601
H    3.297973   24.972775   92.187088
H   90.556076   16.750217   57.373722
H   10.425180   20.750168   34.115948
H   82.752411   19.489410   23.525597
H   27.087492   82.011009   59.610733
H   10.145499   92.973366   31.498287
H   54.600582   74.594284   84.861252
H   22.462685   46.184483   10.294629
H   66.780785   55.488251   21.630615
H   67.149422   25.524096    5.328072
H   93.228531   72.085358    7.583071
H   65.734375    4.689544   51.881340
H   59.059196    1.908015   69.739540
H   78.725319   81.647469   35.679783
H   72.927742   91.074051   85.369904
H   95.902817   46.917786    2.091162
H   12.879969   84.717850   65.337372
H   63.611797   24.974167   36.037445
H   63.648991   97.223053   63.810223
H   87.733231   44.396488   33.844002
H   13.222595   99.513000   50.937611
H   91.095612   54.174423   71.982925
H   84.257896   32.803780   14.876302
H   12.815073   27.758272   42.557579
H   57.728706   83.362823   92.675026
H   11.767986    2.025707   75.595146
H    6.635809   26.511827   50.785679
H   91.191612   11.228675   18.020533
H   76.447151   38.713886   97.869499
H   92.449829    2.714514   87.646599
H   15.202054    3.652517    8.012077
H   45.688992   42.502872   95.601448
H    5.760601   12.357203   82.555061
H   99.261528   77.136452   51.532852
H   91.787651   84.167686   87.502625
H   33.379246   80.771561   95.529579
H    8.834149   26.170900    7.394403
H   49.828049   19.849171   58.821655
H   24.230999   15.804159    7.719216
H   47.263893    0.602624   36.065224
H   15.777121   16.992521   21.420744
H   59.643074   71.410477   68.003166
H   76.701447    9.084017   50.501003
H   93.994751   40.224937   23.921173
H   97.325645   31.995647    6.547844
H   80.009453    7.893041   14.041162
H    1.118155   38.206917   98.425575
H   56.651546   73.657822   38.884335
H   87.215523    2.936093   41.267303
H   85.324463   46.425518   52.071060
H   42.979671   35.816406   33.551804
H   74.537048   58.423153   75.078430
H   66.541039   66.081909   61.416206
H    0.673447   83.186981   67.227493
H   35.592422   24.719936   65.000412
H    3.062795    4.538209   33.870819
H   78.121750   70.222740   78.905754
H   60.069504   59.066795   17.770582
H   89.747948   59.938236   27.957279
H   57.430031   12.025632   47.420067
H   39.177929   25.090305   21.762604
H   29.143593   57.193039   51.434082
H   90.092430   88.604156   12.247070
H   64.988152   83.168930   20.771221
H   34.019020   53.765774    3.416648
H   34.405853   64.405113   95.614288
H   77.725861   11.149490   34.039227
H   55.312721   52.246941   29.574356
H   35.735146    3.626940   83.511383
H   84.397118   30.423021   85.722000
H   80.666023   78.229996   70.972633
H   47.343197   99.216209   13.196876
H   11.391462   42.335598   66.862610
H   62.877110   68.351013   51.527679
H   28.618448   39.507259   77.614670
H    5.347250   94.725365   84.478310
H   57.115925   67.915596   25.545874
H   89.089127   53.710735   34.214565
H   26.009085   31.192188    2.483498
H   26.764584   94.956505   66.088264
H   59.617119    7.918191   34.284286
H   11.669936   93.764252   51.104046
H   98.654457   34.233677   53.824654
H   73.085167   62.593258   69.182487
H   82.224396   73.431908   10.921239
H   76.355576   88.251633   69.619690
H   74.808388   50.697853   85.988304
H   78.274010   96.834106   16.767387
H   13.425790   70.960793   66.024422
H   94.307953   96.548721   95.935196
H   35.086964   83.863426   93.981003
H   40.695927   67.147217   78.354652
H   72.692276   55.588276    6.801578
H   81.873146   74.316734   39.322491
H   25.175823   68.879166   90.749939
H   21.733063   95.577393   74.847313
H   59.270622    3.885629    0.047891
H   23.605631   62.555164   26.291777
H   46.618858   69.625160    8.373203
H   11.339420   83.579361   65.512772
