100
TIME:    2.503, STEP:  2503
H   48.054352   92.483543   96.854446
H   31.644798   40.453598   35.888416
H   22.779112   53.979675   93.955345
H   81.896729   29.527380    2.964457
H   72.751907   73.384003   97.838898
H   89.205208   98.496407   26.626074
H   21.788597   30.352135   86.190712
H   23.155434    5.143945   78.377190
H   92.099419   45.640198   42.532314
H    6.440969   52.322731    5.703023
H   67.432068   66.956177   98.648178
H   60.310219   49.153046   14.762850
H   84.046272   10.272470   76.350670
H   31.147255   97.360909   47.720165
H   10.945721   46.448975   30.454897
H    0.883508   92.807465   25.270945
H   22.829971   47.524391    1.245647
H   54.632729   72.979698   12.770145
H   84.249916   83.357330   95.231186
H   25.083916   52.658970   86.748543
H   15.745056    7.035192   89.307602
H    2.345398   47.406754    6.124686
H   52.325371   74.265480   60.736664
H   86.485672   66.701263   21.178932
H   40.061638   87.663055   55.029289
H   35.182064   53.026188   54.564941
H   46.242622   38.430378   49.635693
H   21.346319   73.271294   49.508701
H   65.596069   76.183815   38.853447
H   96.970177   28.891006   82.370140
H   14.564256   46.503582   11.350172
H   23.797981   83.356514   67.548820
H   46.665936   85.351189   23.286963
H   83.858589   44.337692   66.303619
H   18.553776   69.712494   77.143135
H   90.180222   81.108635   12.035619
H   19.869614   12.870420    5.691958
H   60.535622   13.142048   99.072136
H   39.420937   26.879744    1.753300
H   27.439142   77.861168   34.964809
H   64.187202   42.066891    1.314408
H    6.665818   24.193565   20.394285
H   32.800640   78.509689   82.267448
H   19.525610   54.722275   25.464384
H   39.538876   33.135288   70.299416
H   45.795429   10.657673   93.333076
H   61.286709   60.959442   49.484573
H   56.373089   21.154058   23.449348
H   38.194405   25.151127   44.628998
H   78.380486   68.844231    8.602322
H   43.353657   27.995333   79.808075
H   26.773302   31.479115    9.743771
H   60.801857   36.521973   57.500450
H   18.730579   66.371819   42.266327
H   41.496849   77.931900   21.644667
H   96.698044    9.901417    7.418777
H   54.929951   17.324303   94.043480
H   39.678070   40.510406   49.084671
H   87.683342   44.527035   19.326193
H   93.847198   20.176542   92.419319
H   17.591696   62.168949   19.242687
H   10.077156    4.645454   82.102005
H   44.009953   36.467888   61.842697
H   14.915468   55.410194   59.187176
H   31.669788   60.934612   28.660368
H   47.581917   17.841347   94.182243
H   86.747841   34.898235   87.906631
H    7.466446   60.686523   85.860474
H   81.651695   69.936714    3.247727
H   81.094299   74.037666   96.462524
H   42.551537   25.095736   32.124760
H   67.582397   68.455368   39.879692
H   43.791733   94.498802   97.567619
H   75.107872   90.984558   54.447823
H   82.850853   32.205723   91.141953
H   84.830574   67.992790   27.509796
H   94.210938    9.603113   35.316761
H   49.575817   87.055794   52.672443
H   81.540237   46.166630   45.605629
H   76.773476   72.636459    5.285554
H   59.863941   55.176342   29.586735
H   29.126427   60.574051   77.478004
H   76.166489   49.035553   68.298279
H   22.353771   26.346529   34.808411
H   30.454666   92.319717    5.114701
H   93.682739    0.992903   15.599305
H   34.324440   21.364441   42.896072
H   96.248520    4.898291   69.715736
H    7.626490   54.808937    7.722139
H   45.039913    6.293602   13.694650
H   26.455719    8.587026   86.320511
H   63.487682   83.749321   81.215736
H   45.880970    2.632753   12.553946
H   89.152046   65.059700   95.583366
H   13.315140   25.525986   73.603233
H    0.659095   96.891182   38.165878
H   63.925949   11.322463   93.239510
H   16.055265   37.549225   15.986151
H   89.476433   47.639744   35.385651
H   94.686050   14.411694   56.611115
