100
TIME:    3.874, STEP:  3874
H   55.339264   66.755798   95.599258
H   93.507164   14.786135   22.370405
H   46.345268   52.614861   77.868019
H   82.126846   73.041191   27.815504
H   60.471985   83.275688   60.664413
H   67.950691   97.011101   62.402122
H   49.933163   22.928295   93.404778
H   15.397537   23.752422   52.496807
H   58.397621   13.824190   56.233501
H   68.974510   72.008263   59.393631
H   39.904984   22.121082   66.585304
H    7.979340   17.873987   17.173487
H   96.837753   27.325165   40.084869
H   63.263115   93.135109   52.054028
H   27.624031   23.985924   64.554604
H   45.759766   72.894829   11.465219
H   12.583179   38.205387   26.053854
H   83.923790    6.307949   65.238953
H    5.607340   40.873116   67.458099
H   88.146660   23.547548   80.092583
H   34.388062   70.549072   52.094627
H   33.784500   49.226776   89.371414
H   34.020546   63.115227   21.510639
H   59.104927   83.144226   19.355831
H   91.028229   78.932144   65.150185
H   28.893080   12.177985   26.060869
H   28.019133   81.440140   76.836952
H    5.665473   37.264923   94.824333
H   95.406784    0.571901   74.046364
H   49.539200   94.957878   91.360840
H   68.523384   69.443825    2.880394
H   10.363893   45.475876   40.628456
H   43.236988   85.042320   46.797470
H   41.787689   18.693642    8.546177
H   84.473557   66.075401   60.626472
H    9.391352   88.808502    7.314541
H   51.365555   62.661606   13.721236
H    3.873784   88.054115   95.819618
H   81.550232   97.010979   68.892906
H   98.306267   49.512779   42.832722
H   70.491379   89.110641   33.615459
H   83.448074   85.725464   84.805405
H   44.609867   86.731171   81.296440
H   31.977297   77.696442   59.512817
H   20.615202   79.042358   87.619080
H   28.107738   36.807423   98.897743
H   72.000290   35.519737   62.653587
H   56.446308   35.270905    8.279045
H   78.270004   11.605530   89.938446
H    7.126872   89.701271   12.712414
H   43.249058   95.633430   94.263657
H   93.402451    4.260623   19.740604
H   89.233040   44.471497   77.874214
H   86.980492   43.999199    2.766161
H   32.340103   98.095642   33.296558
H   98.413467    8.459066   60.746704
H   41.846066   77.763969   24.437201
H   37.589836   11.035967   13.769514
H   95.811623    2.454120   14.073650
H    3.375710   25.556456   53.424812
H    4.075150   98.414207   12.348974
H   61.418785   91.883438   20.067390
H   37.066074   42.928642   67.818657
H    9.059664   62.868103   21.960392
H   86.088371   51.434597   56.337971
H   63.359200   49.684761   75.244919
H   76.750076   82.296082   54.099285
H   12.762217   39.095963   51.402203
H   49.982918   71.425400   17.261349
H    8.874033   42.993881   93.575592
H   99.014549   31.813351   15.676529
H   54.537422   22.954803   40.257954
H   54.399643   26.682568   62.421883
H   44.930355    4.224556   72.974266
H   48.951733   34.161724   95.073036
H   17.239862   55.860809   35.258663
H   18.688692   90.773972   59.562809
H   13.987895   97.408760   28.386232
H   47.284164   42.139568   60.908463
H    9.536987   97.966942   87.172722
H   86.684738   69.359970   11.529038
H   31.995499   69.527725   62.836060
H   62.907101   71.921814   98.879364
H   16.675604   43.665840    9.587420
H   63.697708    6.562738   72.211594
H   62.135059   51.354134   10.805598
H   25.890432   21.681572    8.270655
H   18.314569   95.132607   55.454704
H   36.081161   78.474266   96.506477
H   23.824644   49.890038   62.701111
H   82.562622   82.616020   15.273599
H   64.933197   86.848198    7.343546
H   33.784309   43.756897   18.586893
H   21.664303   48.220047   88.022423
H   89.610481    2.719504    5.108024
H   13.898147   42.750740   67.351768
H   55.102325   90.001671   14.391668
H   21.086477   49.222473   94.046974
H   24.164818   53.549587   20.548492
H   79.839607   79.219307   24.545004
