100
TIME:    6.954, STEP:  6954
H   47.051346   84.305824   92.779434
H    8.424225   81.691261   16.576813
H   99.303131   74.202705   41.712788
H   82.643814   46.146149   58.991734
H   32.884705   30.151106   77.154053
H   20.180111   93.674309   67.424942
H   88.511032   30.905010   34.265011
H   73.315605   90.211548   69.701424
H   82.685280   17.694778   62.358723
H   84.821083   16.234133   79.994972
H   53.410889   46.051746   69.904259
H   90.425339   72.258759   97.936256
H    0.317546   41.066097   34.037041
H   10.760933   83.641701   86.442390
H   65.069283   48.867271   16.485363
H   21.918629    3.506662   55.798340
H   64.907784   41.923382    6.438408
H   49.775578   56.457367   58.462685
H   53.574169   70.083725   29.725636
H    5.166496   58.133984   89.793297
H   51.616501   63.925621   68.497002
H   29.067093   53.315521   27.080917
H   92.896278   38.065788   33.389328
H   72.931755   20.018282   90.608932
H   80.869698   34.673218   87.896767
H   14.818569   21.096786   36.480431
H   62.428761   53.408775   37.946575
H   45.783127   81.028923   96.633835
H   62.378929   80.013405   28.452162
H   67.640396   18.728630   36.211205
H   89.738869   45.633980   59.200661
H    4.837139   60.376919   55.497444
H   60.188557   59.694511   24.268194
H   71.924751   36.430038   78.790649
H    7.889916   33.154640   48.139229
H   77.137108   30.096252   97.563301
H   46.777817   49.865356   56.413303
H   76.569862   31.691158   13.166572
H   51.543095   29.899530   70.418106
H    8.204727   61.173992   85.160995
H   59.994858   94.793007    6.178497
H   14.168842   68.873260   34.974331
H   71.133392    5.202915    3.769501
H   35.307064   29.365255   60.660042
H   53.447151   57.520832   51.182926
H   88.361534   95.553757   11.412626
H   96.062790    3.019600   92.215813
H   56.612057   66.993927   98.852066
H   68.299934   56.518795   67.078201
H   71.739990   36.577763   97.307869
H   43.024097   98.279312   26.731857
H   43.092007   18.459282   17.549660
H   53.120396   62.330383   98.990700
H   15.654869   93.740616   38.676407
H   87.106796   68.021111   59.497425
H    2.256958    5.218790   55.896225
H   37.105015   88.891518   17.370857
H    8.246778   20.168047   34.437363
H   38.723930   32.596523   77.625710
H    0.127546   62.296886   65.822289
H   98.363823   55.177124   72.206619
H   52.106880   63.215225   80.707977
H   46.167957   32.755043   56.613800
H   20.557999   79.644470   38.339222
H    8.338149    5.439415   43.165028
H   74.152283   96.569511   57.358597
H   29.636469   88.780182    2.800623
H    0.005243   15.243934   98.644012
H    3.487229   50.116241   24.089565
H   71.269737   97.907158   87.089996
H    1.210666   22.251633   78.732368
H    0.606156   20.719975   65.774910
H   53.577591   74.335510   83.448303
H   77.122643    9.301208   89.970947
H   97.452019   38.555950   28.558849
H   90.053413   53.259853   28.013803
H   98.354095   23.914089   14.071634
H   58.691891   96.014931   98.481941
H   94.983635   33.092632   95.265434
H   58.494186   30.202793   21.827751
H   46.952095    1.224265   95.613831
H   63.118172   89.568466    5.233152
H   57.732452   23.413488   92.206772
H   28.574085    7.227728   28.276783
H   13.727339   13.907590   73.640099
H   91.243210   64.488678   24.690231
H   31.596727   97.740013   55.136940
H   67.868462   48.608273   23.475708
H   99.997177    6.985041   71.316048
H   51.512241   23.169109   72.804077
H    8.609089   48.927002   80.317551
H   92.824478   18.486664   66.023979
H   31.218174   36.174129   56.768074
H   19.344158   35.063927   95.696594
H   36.362801   26.832573   75.882050
H   68.293472   21.125837    8.265812
H   10.626776   66.755524   37.258698
H   24.854494   30.543678   39.280052
H   77.440605   66.831261   62.567944
H   71.149803    0.184760   27.839413
