100
TIME:    7.027, STEP:  7027
H   42.114578   77.611336   92.712601
H    6.408304   85.646690   21.179691
H    0.558270   79.454704   40.855648
H   82.656067   43.138641   54.990078
H   32.230850   36.002377   75.174667
H   19.047840   93.595222   74.654099
H   84.684814   35.834538   39.973705
H   67.577950   96.527313   62.999054
H   80.890800   10.676042   57.763363
H   82.827217   17.282305   82.853218
H   46.620605   48.989079   62.872353
H   87.639496   75.917892   92.739952
H   95.661156   36.649227   26.782852
H    7.146494   83.416695   91.997368
H   65.955940   42.346550   12.974934
H   18.983246   97.121765   49.738770
H   59.037575   46.751545   13.083886
H   51.336697   52.905167   55.932480
H   54.710896   73.145813   33.571346
H    3.199921   56.584003   94.763481
H   47.284576   56.658035   66.515388
H   36.065674   53.412430   20.864288
H   91.921623   37.472084   31.300688
H   66.149269   20.891573   85.187622
H   78.258736   28.883766   88.435890
H   14.474377   18.945026   29.610601
H   56.133602   50.373978   39.395191
H   39.623863   84.436317   99.046524
H   63.966225   86.636604   25.001604
H   70.439606   16.921898   42.014580
H   92.611595   52.179764   53.425133
H    9.446331   58.360218   48.739464
H   65.330696   54.353401   30.844610
H   75.009117   29.740005   75.715195
H    6.073089   27.627510   52.580872
H   83.482948   35.813950   97.333839
H   53.779182   47.192017   62.165440
H   73.552330   30.355045   18.317764
H   48.461514   28.309172   63.343781
H    1.328966   54.339710   90.904221
H   55.005737   97.298149    7.898206
H    8.016680   69.159531   38.700855
H   71.761627    5.640814    9.042246
H   30.645985   30.590536   67.797600
H   47.115234   54.640865   57.429634
H   87.419182   96.946121   11.709200
H   96.633102    6.989727   92.916451
H   56.616512   67.745804    3.368819
H   70.434151   50.473148   64.166489
H   73.272705   37.688869   92.204018
H   43.019085   91.231720   27.501278
H   46.640308   11.685150   12.757792
H   54.634731   62.753662   94.751228
H   13.964539   92.549866   41.897781
H   81.294510   74.418190   60.118420
H    2.347879    5.142001   53.411133
H   41.732677   86.785149   24.313744
H    2.811126   13.273893   32.557114
H   44.481079   35.681446   72.021721
H   95.309975   67.907730   63.745995
H    2.968742   51.782539   66.514633
H   49.515968   62.535751   77.405289
H   51.124218   27.773483   51.607971
H   25.570789   80.042130   36.357052
H   11.235660   99.608978   49.963108
H   69.667755   92.940453   61.674927
H   23.779348   91.304260    6.325197
H   94.962654   19.419077    2.133834
H    7.125681   44.870926   19.510914
H   72.748985    1.578698   86.936279
H   98.892555   17.284790   77.856850
H   94.598900   18.290855   71.124931
H   48.817932   70.725388   81.576965
H   75.515297    4.681115   85.633453
H    0.969905   38.662060   34.093464
H   91.778831   57.938755   23.101820
H    4.984132   17.595539   15.366255
H   62.121563   91.241905    2.513394
H   98.484596   32.878208   96.079689
H   54.914139   26.225922   15.538730
H   48.380661    1.979658   99.976944
H   68.596199   90.041870   99.125969
H   62.350090   24.634314   99.158569
H   33.596256   13.474571   21.609585
H   10.172911    9.341052   66.563545
H   89.563461   67.169815   29.759552
H   36.472233   92.432320   58.617851
H   69.042503   42.766468   22.718819
H    1.512277    2.920599   70.719002
H   45.057796   20.165501   75.413925
H   11.596546   52.868507   81.859177
H   98.225739   23.976757   67.415230
H   35.897633   38.364597   62.413277
H   26.399269   39.492760    0.618872
H   35.100761   20.293472   77.559570
H   74.322968   18.243364    4.495150
H    4.832451   70.944870   33.060440
H   24.713587   34.155582   37.814728
H   73.963036   67.146492   56.453236
H   75.684456   98.311234   20.806858
