100
TIME:    1.218, STEP:  1218
H   34.953529   10.324497   98.030899
H   67.389351   70.784416   54.831295
H    0.691595   61.531780    9.038551
H   81.681046   82.467979   73.401604
H   84.261536   70.385597   32.679436
H    9.129120   99.888542   99.367790
H   89.135109   43.583363   85.701958
H   24.153900   93.974899   96.360771
H   23.687233   69.187637   23.417940
H   41.554512   33.872032   55.387383
H   86.959641   15.251122   22.425882
H    9.351254   84.742867    6.230844
H   65.783997   88.016563    4.070056
H   94.773735    1.321946   49.931171
H   95.315559   61.227932   92.223862
H   52.551361    5.200687   31.936020
H   26.141415   62.545273   84.251564
H   27.172363   35.469452   57.320602
H   64.230614   29.449907   27.531618
H   59.701035   79.948593   99.259789
H   91.998795   34.961792   24.186005
H   79.137566   45.707558   15.544257
H   69.481972   84.716301   97.500809
H    5.876153   51.289738   16.614624
H   86.021721   89.576912   45.549042
H   41.074131   91.316910   75.009140
H   57.050072   91.846024   24.136084
H   29.770058   13.291709    7.032719
H   37.655319   59.598392   99.597618
H   47.696423   60.694443   80.216301
H   64.014412   31.268675   13.030144
H   42.662357   18.861397   86.507729
H   56.152912   79.367790    7.524014
H   29.565300   62.100288   20.438784
H   50.496529   66.848671   98.897430
H   78.455048   80.164261   16.453367
H   96.621361   59.930519    4.439006
H   13.649916   36.661297    8.393055
H   95.962936   54.507286   25.387199
H   48.471085   98.157692   33.863544
H   52.003586   97.975533   71.040085
H   22.154289   66.524178   60.023792
H   21.732183   70.803925   89.450722
H    1.582364   33.183388   99.823982
H   51.002510   83.834427   60.337517
H   62.373608   86.148262   88.117470
H   48.941029   91.444473   38.030952
H   56.304462    7.923868   43.940853
H    0.635955   31.574448   95.886826
H   51.435146   49.288136   98.477257
H   43.451694   52.053673   66.259262
H   64.325371   50.718174   94.101730
H   34.145401   29.071106   32.129761
H   48.485027   87.332283   85.564041
H   43.795410   65.282303   10.741690
H   95.090225   11.251886   51.163208
H   73.466736   54.402168   71.829353
H   35.363464   61.862663   82.182205
H   86.338112   90.231537   17.976456
H   78.642792   21.407118   28.966759
H   36.533520   21.929497   19.431335
H   55.681946   16.608383   40.244652
H   56.850044   24.095238   49.998634
H   26.676748   48.420105   94.070351
H   80.667381   63.565624    8.990792
H   26.521492   81.722725   18.203016
H   89.845810   90.472382   25.867874
H   96.230034   87.195419   24.430044
H   17.606354   62.268616   83.841743
H   55.058846    9.404388   99.168365
H   83.354836   12.528059   47.539433
H   73.536758   11.102417   45.798233
H   27.576294   58.057507   30.517307
H    3.382886   72.303192   30.819237
H   20.896957   30.376768   93.730156
H   54.455410   85.635277   13.974084
H   77.541954   20.978632   12.586121
H   89.204178   71.079811   81.705917
H   19.934038   49.934422   31.269592
H   39.792587   42.619537   15.989259
H   34.717266   41.882427   52.785397
H   32.710400   52.182022   84.928787
H   94.864006   27.585909   45.908298
H   33.957493   16.387430   52.179176
H   93.022461   72.698395   29.680916
H   23.258297   53.795315   26.365028
H   48.502190   14.794411   81.621979
H   75.562561    7.778616   83.081276
H   80.959175   26.355574   18.234787
H   58.650528   59.165344   67.756203
H   73.868111   39.200146   59.183666
H   68.406624   87.111595   56.728828
H   63.433128   64.124008   13.142529
H   64.953072   87.113579    8.942559
H   35.534611   40.628929   44.074272
H   94.523361   47.633171    4.537548
H   65.923233   37.578838   67.140778
H   11.337230   26.608215   36.548477
H   50.689262   42.100613   43.024624
H   14.883347   47.418499   80.374947
