100
TIME:    4.028, STEP:  4028
H   44.924713   52.633179   95.458267
H   89.232430   23.134661   32.083664
H   48.992378   63.694420   76.060982
H   82.152695   66.696587   19.374243
H   59.092621   95.619469   56.488724
H   65.563240   96.844261   77.652794
H   41.862591   33.327572    5.447823
H    3.293442   37.074917   38.356564
H   54.612007   99.017502   46.539181
H   64.765923   74.219475   65.424255
H   25.580276   28.317646   51.751652
H    2.101205   25.593256    6.211983
H   87.032181   18.009071   24.779861
H   55.637840   92.660439   63.773922
H   29.497452   10.230345   57.151478
H   39.567902   59.425468   98.681580
H    0.199232   48.390827   40.073082
H   87.213585   98.818840   59.899181
H    8.005806   47.334038   75.572144
H   83.996819   20.277140   90.577629
H   25.249481   55.217953   47.915413
H   48.548630   49.431213   76.256882
H   31.964424   61.862755   17.104076
H   44.796669   84.991211    7.918126
H   85.520172   66.719955   66.287514
H   28.186361    7.589589   11.626396
H   14.739523   75.039139   79.891762
H   92.671173   44.453125   99.914116
H   98.755325   14.543818   66.766518
H   55.444382   91.146416    3.603431
H   74.583656   83.253914   90.696404
H   20.087416   41.221466   26.371895
H   54.085087   73.774773   60.671005
H   48.294434    4.580624    2.058706
H   80.645645   54.434227   70.004318
H   22.782579    0.905594    6.783033
H   66.135727   57.021957   25.855825
H   97.508583   85.236641    6.687064
H   75.050537   93.655388   53.968987
H   83.800621   35.095253   54.949741
H   59.966385   94.395462   37.243633
H   69.607437   92.636383   92.040604
H   45.936359   87.654663   92.420647
H   22.143747   80.276581   74.570679
H    7.256872   72.965637    0.797092
H   26.120937   39.744740   99.522804
H   73.203415   43.894615   64.132713
H   56.454533   36.857056   17.807701
H   82.772324   98.851532   83.795929
H   10.356746   92.044075    1.941791
H   43.237309   80.765907   95.887405
H    0.886667   89.970947    9.630360
H   92.426491   45.364441   68.930672
H   83.413414   41.486031    9.561351
H   20.078568   11.592211   34.606602
H   98.606155    8.296926   55.504181
H   51.608532   73.320396   39.083839
H   26.122551   96.492424    9.802668
H    7.957258    8.961283    2.250950
H   93.212891   37.393841   49.044685
H   13.789738   91.251854    0.342108
H   55.953026   90.450027   13.099023
H   47.521748   32.420097   57.258415
H   19.634592   63.705826   17.778828
H   92.200340   39.134289   70.679131
H   53.898689   42.028938   84.350601
H   64.394547   87.620850   61.534222
H    2.124136   47.903214   58.764294
H   57.658714   60.359940    7.602531
H   11.994051   50.740173   93.251312
H   94.124504   21.334766   13.828957
H   41.839989   17.843872   51.533726
H   44.358719   19.065517   58.472954
H   41.539516   94.479393   63.823936
H   56.376095   34.381435    6.747368
H   20.880960   65.731163   24.896580
H   32.670937   77.426804   62.286289
H   21.223095   87.339638   36.891525
H   54.668579   41.687222   62.627380
H    1.984382   89.580315   73.905449
H   89.697250   70.953171   20.732969
H   43.550903   70.533463   49.958862
H   72.649727   74.492554   13.547070
H   27.270506   56.843819   95.521866
H   56.199326   96.930061   57.282974
H   58.590305   57.011406   21.499924
H   36.175743   10.484520   15.614241
H   20.793077   82.802925   53.853279
H   39.276962   69.899651   95.246956
H   10.208880   43.553658   68.206543
H   88.864929   90.932152   18.525797
H   76.327637   98.428276   10.278187
H   43.656044   48.377884   30.495951
H   36.549450   57.561890   98.406425
H   86.948097   88.925652    8.646609
H   26.617905   36.669319   59.397514
H   42.878387   98.839470    5.534777
H   21.651617   50.533691   91.581978
H   16.828575   54.213421    7.648972
H   89.405861   75.266853    9.709666
