100
TIME:    2.810, STEP:  2810
H   27.293144   64.330009   96.573380
H   23.105049   57.099785   55.253925
H   28.056143   76.066849   90.353004
H   81.948257   16.878199   86.137634
H   70.002136   97.991409   89.514633
H   84.445808   98.163811   57.030277
H    5.699022   51.083160   10.198600
H   99.025833   31.702631   50.189716
H   84.552773   16.123489   23.207157
H   98.052025   56.730797   17.725603
H   38.875671   79.309067   69.075256
H   48.592072   64.541458   92.910606
H   64.516808   91.698334   45.837570
H   15.946223   96.414650   71.083138
H   14.680397   19.026770   15.697701
H   88.539917   65.956207   99.786476
H   98.143562   67.829102   29.193735
H   61.193298   58.050362    2.125908
H   89.032738   96.234879   11.405046
H   16.813522   46.140560    7.650451
H   97.527344   76.473358   80.973969
H   31.777786   47.814301   79.980835
H   48.226479   71.768669   51.953323
H   57.962067   70.383240   98.377876
H   29.081604   63.313362   57.294220
H   33.774387   43.879803   25.790464
H   19.769005   25.668180   55.727818
H   95.442650   87.601021   59.657558
H   72.271408    4.037441   24.341646
H    8.741715   21.292831    6.775853
H   26.645689   74.033081   87.060692
H   43.182228   74.872978   39.128273
H   68.291229   62.889259   50.943947
H   96.829826   16.202896   53.369858
H   10.922029   46.505737   95.838768
H   16.872929    5.224467   10.980447
H   49.314194    1.626605   29.882200
H   47.847794    7.523077   20.735798
H   26.461411   20.191523   72.002426
H   98.523178   49.120865   59.120167
H   43.207836   52.599873    8.548682
H   79.074364   37.972870   34.816757
H   35.445011   80.350677    4.443330
H   99.922241   59.868141   55.480240
H   12.909288   21.023647   96.569801
H   41.834728   16.513233   94.579140
H   63.687489   77.654816   52.433434
H   56.389484   24.314890   42.444786
H   47.167465   99.726189   32.381508
H   84.816917   73.514626   87.129669
H   43.330235   98.355743   83.045029
H   41.692860    2.991762   89.590233
H   67.169197   38.302063   39.669098
H   11.621929   61.362907   55.813751
H   17.055740    4.844313   24.249220
H   97.082169    9.578775   96.967773
H   74.392738    8.465512   23.241951
H   16.817963   11.517619   41.177322
H   11.896133   57.498272   95.757774
H   73.586960   43.774448   83.687508
H   36.958076   47.893093   95.306656
H   99.182213    1.787355   68.212616
H   64.834572   15.532167   40.781418
H   35.996880   57.080200   50.851200
H   43.856350   36.413868   57.251762
H   28.722328    2.579505   12.334084
H   62.117012   45.510853    2.728412
H   86.259743   78.243835    0.536849
H   96.951103   47.877647   83.994331
H   87.315247   89.477608   95.816071
H   32.803200    4.206941   28.441574
H   42.269653   58.266693   62.358017
H   23.774603   79.311821   89.697746
H   68.352898   71.558151   36.201897
H   97.653709   32.643719   14.414921
H   92.086784   87.667473    6.852793
H   22.084398   82.995010   40.746037
H   63.999233   66.982933   69.627029
H   96.263458   45.264874   49.032303
H   61.717659   55.916531   78.837234
H   65.871017   58.352398   47.935566
H   52.162201   62.578995   51.807228
H   95.588211   54.160339   97.538605
H   43.473606   52.616913    6.767341
H   15.505441   73.118164   75.354485
H   86.618591   12.269573   36.918240
H   54.828270   99.043022   57.534973
H    1.190333   80.319092   66.520943
H   13.997959   37.715385    5.210397
H   17.896488   93.663162   24.669018
H   39.019409   25.164116   92.803787
H   86.202621    6.834821   87.066612
H   65.579071   11.831274   36.304970
H   18.824566   83.680382   16.282917
H    8.006489   98.026184   80.658012
H   26.016098   84.767830   22.309021
H   39.557449   28.940517   75.583824
H   17.181875   40.163147   11.073921
H   74.851585   48.963100    9.670372
H   13.751785    6.526065   27.042681
