100
TIME:    7.753, STEP:  7753
H   93.018791   11.034041   92.047928
H   86.358078   24.987339   66.958023
H   13.037912   31.685257   32.331219
H   82.777924   13.226624   15.193933
H   25.725462   94.194481   55.489273
H    7.788184   92.808693   46.551918
H   46.634823   84.857346   96.747849
H   10.515785   59.333958   96.338539
H   63.044334   40.874115   12.062775
H   62.997810   27.706591   11.280003
H   79.089859   78.201447   92.941422
H   59.932899   12.308273   41.061638
H   49.366692   92.707397   54.634426
H   71.199074   81.178963   47.247471
H   74.773933   77.496658   78.059357
H   89.791367   33.623352   89.473907
H    0.656794   94.772171   79.174530
H   66.861328   17.577805   30.768936
H   66.016861    3.599485   71.818863
H   83.637283   41.169132   44.192879
H    4.202698   84.381653   46.812672
H    5.668000   54.376205   59.038712
H   82.228477   31.567778   10.527257
H   98.692093   29.576632   31.268250
H   52.292183   71.309235   93.797585
H   11.051311   97.545029   61.291580
H   93.528931   20.193377   53.801975
H   78.365685   18.323523   23.044794
H   79.752205   52.504658   90.684196
H   98.278320   98.952347   99.730339
H   21.184240   17.282455   95.986397
H   55.286404   38.303715   81.530037
H   16.467512    1.236481   96.248421
H    5.684033   63.206520   45.129166
H   88.004814   72.659142   96.749817
H   46.592503   92.676712   95.051796
H   23.412914   20.603914   19.371244
H   43.546127   17.067127   69.548027
H   17.814556   12.492727   92.989357
H   32.947792   86.373459   48.024879
H    5.389358   22.207548   25.001799
H   46.833382   72.006546   75.763664
H   78.009552    9.995806   61.479580
H   84.288330   42.776207   38.782635
H   84.140221   25.999004   19.555260
H   78.047295   10.791636   14.658686
H    2.306380   46.473030   99.884438
H   56.660824   75.223373   48.289242
H   91.659370   90.346992   35.203400
H   88.515869   48.739056   41.442703
H   42.969234   21.141539   35.154465
H   81.924133   44.318111   65.100647
H   69.693016   66.963257   52.588814
H   97.152924   80.707611   73.935013
H   23.489719   38.040726   66.292282
H    3.252111    4.378320   28.696381
H   87.758591   65.836876   93.362175
H   48.751144   44.712425   13.855123
H    1.736522   66.361214   16.288120
H   47.400063   23.709286   43.096825
H   48.766064   18.021549    9.911807
H   23.748817   55.778244   44.556091
H    0.411183   78.232086    1.823975
H   75.425163   83.996933   16.643963
H   40.052773   41.625210   17.572134
H   25.068638   56.848717    4.601856
H   65.530792   16.404259   41.377605
H   44.813087   60.939812   36.840836
H   43.311256   92.705208   73.978912
H   87.484154   38.057117   85.399612
H   75.839485   67.888077   69.149635
H   34.826900   94.169334   24.338312
H    1.480493   34.817471   62.965687
H   59.531467   58.731045   42.496185
H   35.940323   39.731075   89.139450
H    8.940879    4.466905   74.250038
H   70.920616   54.759506   28.241522
H   96.230362   43.772381   42.609402
H   33.297600   30.745716    4.179802
H   19.310818   86.676476   52.993294
H   62.592827    9.490701   43.369125
H   23.075741   94.749969   38.388287
H    8.268888   36.775669   68.300446
H   83.543053   75.600098   55.299671
H   74.823395   63.922642   96.186714
H   72.858017   93.834274   80.174988
H   84.960121   39.646217   93.236229
H   80.718590   84.671509   15.191399
H   16.580666   62.497536   64.781258
H   80.869720   90.295792    1.369212
H   41.307423   92.071556   97.190964
H   51.942387   78.579224   81.251503
H   82.435806   60.149250   18.555971
H   96.563820   83.538414   49.571636
H   22.547436   55.263916   94.242859
H   34.287628   89.574951   66.996361
H   47.205437   12.608361   91.306313
H   23.312235   70.076546   23.240110
H   39.377892   70.281532   95.641624
H   20.780420   79.678238   50.869762
