200
TIME:    0.638, STEP:   638
H   21.700857   61.154118   22.145130
H   31.511675   38.688507    6.054597
H    9.795953   86.558548   64.951836
H   31.258518   81.625679   34.092094
H   10.984475   93.816498   47.936218
H   76.670959   42.012650   53.769135
H    9.125533   55.021736   57.354961
H   11.807584    6.072455   10.945155
H    3.591549   81.539505   38.010212
H   96.850876   69.323875   80.373756
H   26.066027    3.096219    5.538842
H   32.423584   52.646034   31.706038
H   20.942593    0.216672   44.979607
H   85.592216   54.886120   61.444332
H    0.406396   75.008415   41.999321
H   17.699444    9.567753   45.737305
H    2.930240   26.358807   96.108376
H   27.111469    2.300152   36.434696
H   78.267593   15.292988   48.342758
H   91.322472   74.238976   22.042271
H   62.861488   96.626068    7.606472
H   81.168526   64.027229   55.237335
H   83.086952   59.647675   39.586418
H   17.038311   91.687798   90.338081
H   20.545624   28.710951   31.208645
H   18.331633   79.999451   93.811546
H    6.603242   66.782753   65.084213
H    3.644402   86.547783    1.778525
H   27.831585   44.432320   36.007851
H   75.064240   31.426252   84.858414
H   12.841871   68.077126   16.681412
H   24.688557   72.834457    3.402074
H   17.506706   17.549536   78.040588
H   83.254219   64.012138   45.246918
H   28.888735   73.355331   31.191496
H   20.060486   40.847374   84.040337
H   97.687775   65.838745   88.942848
H   13.228435   55.050564   97.272690
H   38.340195   32.148808   53.278473
H   86.265869   38.051815   48.149506
H   80.622734   86.631500   14.734857
H   33.149429   34.761070   28.029530
H   69.535721   78.639030   65.106926
H   36.394608   82.564247   32.982632
H   42.375786   88.438110   58.726555
H   35.458969    3.480615   47.016407
H   87.474304    6.713134    4.905151
H   80.426353   65.544533   33.339676
H    2.472412   13.648676   61.453281
H   47.874699   19.597593   88.874710
H   68.740433   65.458565   12.095733
H    5.923990   42.548321   72.098579
H   62.911003   83.038887   13.130310
H   16.483143   90.582657   87.597008
H   60.352402   67.533539   77.901634
H    0.203577   62.544975   91.680878
H    4.294643   18.251564   45.385273
H   71.756943   67.831604   98.119774
H   19.782965   82.165878   16.752537
H   33.898144   93.754311   59.636795
H   49.130524    7.611319   30.608139
H   97.089531   17.367716   52.117210
H   82.412109   33.451187   71.457520
H   33.769341   65.720161   12.553726
H   77.746277   82.012390   34.204578
H   23.127108   32.023735   40.017288
H   71.308449   14.766770   94.057961
H   95.112633   92.354805   95.151268
H   30.679403   11.231647   56.942253
H   42.945927   48.566868   50.961338
H   58.290565   83.475876   83.927307
H   20.954796   13.360431   41.978840
H   90.125626   32.543804   86.168564
H   20.831736    0.216379   72.159462
H   83.991287    7.314272   48.898773
H   63.373680    5.025460   60.276711
H   93.745361   44.766792   66.515907
H   11.813906   13.217302   34.357948
H   14.556431   47.425159   26.123501
H   62.278568   88.447266   75.386749
H   60.260143   23.375444   95.224854
H   44.137089   61.432674   75.553337
H    9.446923   18.032026   78.634743
H   11.695311   74.874031    6.823179
H   24.735359    3.532525   46.503120
H   35.879982   71.848938   19.497734
H   53.693130    3.613453    2.683780
H   72.021706    3.731230   26.453880
H   77.867813   73.025940   78.604126
H   21.450668    3.886834   50.486874
H   24.559116   38.328594   78.984207
H   81.283104   92.027435    7.052088
H   66.166626   12.373394   84.394577
H   42.180843   80.134773   80.033028
H   35.209633   51.542488   84.516029
H   52.789955   36.607758   10.348587
H   84.704491    0.513125   15.469990
H   95.953712   34.622978   52.361866
H   27.999504   65.791107   54.291702
H   74.124611    4.394472   27.347574
H   27.623564   91.430664   87.681068
H    5.371794   82.677948   63.669212
H   31.429564   22.624632   36.064396
H   41.000175   68.674316    5.967650
H   24.811148   22.242363   37.991138
H    3.179682    7.286909   25.257017
H   84.511925   35.038685   54.406967
H   62.405987   49.555557    3.351610
H   82.911140   35.065765   18.377918
H   17.151911   22.511187    7.485178
H   52.430984   92.608208    1.075873
H    1.974923   73.353699   95.044655
H   50.181450   84.893173   85.278313
H   61.875969   10.816959   64.690613
H   50.568611   98.541779   12.817582
H   97.795952   94.154640   96.889206
H   16.211246   14.046948   88.819870
H   38.751842   46.586452   26.022881
H   33.977173   72.656219   63.869228
H   81.285881   54.618343   64.189743
H   44.708504   24.404224   74.478065
H    1.116253   18.051701   59.895386
H   41.831734    5.036552   35.836063
H   98.213516   52.996826    0.436198
H   65.007225   99.097847   79.649910
H   62.303616   73.241547   17.846766
H   85.493721   51.048264   55.684006
H   66.723030   90.691490   38.363979
H   97.365593   38.077000   75.820244
H   87.036072   22.262920   73.282112
H   64.675072   70.974884   18.621166
H   66.423378   89.998825   18.712803
H   91.138130    1.958411    0.335850
H   81.404984   23.207294   54.605556
H   24.087605   94.173645   38.128052
H   51.757660    1.116054   77.818123
H   69.551636   87.578712   75.151817
H   94.613152   51.794079   76.909782
H   56.716278   49.899536   71.455956
H   43.663536   90.001945   84.398560
H   70.321503   51.364479   27.766449
H   38.916061   53.103683   55.524914
H   42.211212   64.086525   85.959885
H   39.475868   12.120775   84.719704
H   59.009808   56.567413   62.082981
H   60.522919   68.832596   10.784546
H   54.144402   95.034843   44.432140
H   31.784813   58.603615   66.541527
H   75.825165   48.175110   93.987900
H   22.149036   93.020027   75.102905
H   62.191795   68.069199   48.339581
H   50.541252   96.096901   35.679909
H   94.664993   16.956707   89.493317
H   20.430820   10.278290   66.117302
H   29.394741   64.389938   67.953438
H   75.317116   44.515766   66.305923
H   63.477337   72.819672   85.468430
H   51.704582   30.274139   19.048462
H   94.166023    0.234691   87.844688
H   59.217541   40.704620   93.514664
H   57.865440   68.240028   72.833687
H   24.917204   20.993759   32.096031
H   82.351280   17.217224   37.066563
H   25.883913   31.871700   54.170982
H   55.143379   35.593193   13.735176
H   18.770870   51.775578   60.126171
H   68.046455   91.129585   56.440914
H   23.979893   49.040726   64.470535
H   99.480965   26.875902   35.917137
H   44.635773    7.456237   85.921478
H   71.761597   10.366961   35.942673
H   32.413673   50.664062   58.680305
H   45.362877   60.352352   79.225418
H   66.325027   65.018227   83.473267
H   52.939514   92.042557   80.517479
H   13.195352   49.810692   23.668585
H   31.329098   65.354263    3.556782
H    5.257404    9.580421   69.969376
H   65.423225   12.127192   64.479889
H   67.367958   58.724419   91.999489
H   74.151474   99.451851   32.465569
H   27.255411   30.591885   84.145813
H   47.309818   89.747879   13.951904
H   60.148323   25.956837   91.832283
H   90.669830   71.071884   76.757126
H    7.592407   39.582138   85.946144
H   45.210571   97.707298    8.083879
H   71.300217   84.083199   39.453094
H   95.092262   62.948238   71.092087
H   56.851067   56.108288   70.731461
H   66.833084   17.856567   76.459297
H   44.390198   95.745209   19.554953
H   12.940942   26.992588   66.923790
H   28.150404   79.415054   41.334194
H   71.236435   36.478153   20.514385
H   76.299820   11.360060   24.113579
H   12.106830   96.411858   16.900251
H   17.342707   89.496101   35.742294
H    6.605889   12.725531   60.217110
H    3.856649   21.508575   92.219330
