100
TIME:    8.542, STEP:  8542
H   39.661125   38.678856   91.325577
H   64.567154   67.743973   16.705032
H   26.600054   88.449997   23.069969
H   82.910355   80.719597   71.947701
H   18.655451   57.436222   34.095642
H   95.553467   91.953911   24.688538
H    5.284638   38.135010   58.448689
H   48.501938   27.593584   23.895432
H   43.649208   65.014191   62.400120
H   41.447670   39.035465   42.174568
H    5.698990    9.948459   16.941183
H   29.816879   51.856853   84.900459
H   99.054550   44.950356   76.226242
H   32.131920   78.747047    7.289273
H   84.357124    7.019272   40.115639
H   58.068115   64.614403   23.980373
H   37.210274   46.956974   51.000313
H   83.728226   79.185326    3.419493
H   78.308868   36.701122   13.388339
H   62.376545   24.415243   97.911720
H   57.382332    5.833574   25.400053
H   81.310204   55.423615   91.848099
H   71.694191   25.153902   87.953079
H   25.382597   39.015350   72.671616
H   24.073181    8.736275   99.624550
H    7.330830   74.285324   87.041992
H   25.492376   87.396194   69.456833
H   11.792898   55.151386   49.126656
H   96.908043   24.088953   53.386803
H   28.530701   79.424789   62.453033
H   52.238270   88.033394   33.563225
H    5.104462   16.506771    8.488304
H   72.044693   43.508644   67.327774
H   39.022446   90.899445   11.890799
H   68.368904   12.920708   44.755245
H   15.179071   54.477615   92.571724
H   99.088341   91.707771   81.541588
H   10.936285    2.627484   25.226639
H   84.511528   95.302940   16.529106
H   58.631737   12.509589   10.100953
H   51.466080   49.277657   43.590298
H   80.340607   75.100616   16.045456
H   84.799652   14.728710   18.471294
H   33.908421   56.023148   15.926547
H   15.700912   94.872643   87.072929
H   67.862144   25.837608   17.864119
H    8.474504   89.380684    7.461552
H   56.708981   83.349823   97.108131
H   14.722855   25.001892    3.729072
H    5.080397   60.748142   86.276054
H   42.915058   44.968788   43.473541
H   20.270056   71.105438   13.307067
H   86.054268   71.538147    6.766020
H   78.877441   67.837723    8.751590
H   60.668221    7.184484   72.998108
H    4.234810    3.548368    1.836959
H   37.777313   43.070778   68.402718
H   90.001160   70.200691   93.531883
H   63.965664   99.697716   55.717346
H   95.335609   84.354660   20.655785
H   98.536057   81.328247   48.393841
H   95.745628   48.434341    8.855541
H   53.977848   24.392427   47.719879
H   29.603249   88.294922   95.222427
H   71.371292   78.609100   91.047867
H   76.600410   17.625053   51.254063
H    2.227401   43.680752   79.469589
H   90.311264    6.063010   74.559601
H   82.634399   36.012688   24.493057
H    3.508391   77.686172   83.726166
H   50.782764   14.202441   59.686836
H   69.853516   67.972069   82.170822
H   50.037033   95.789482   42.733837
H   42.164944    8.797127   95.617531
H   73.948029   40.892857   48.961781
H   27.595026   55.035912   21.161478
H   42.578934   86.468506   42.236267
H   33.295719   92.184471   86.188293
H   71.131874   28.428173   12.984961
H   80.617882   43.696587   85.020348
H   78.039101   17.653269   90.526611
H   82.280746   99.866623   72.379555
H   58.175896   49.970615   43.440395
H   37.825310   43.116920   83.237480
H   36.406357   14.567961   19.702259
H   54.699841   22.814964   34.965729
H   37.655720   82.279167   30.858803
H   93.407890   21.534473    7.010682
H   32.956791   18.567472   58.328255
H   11.110915   57.837006   29.573404
H   73.596519   34.673870   13.853538
H   10.320398   37.919067   96.288445
H   33.012058   83.819267   79.570557
H   72.816147   31.406116    2.772693
H    8.904030   84.589279   12.372839
H   99.455734   58.417542   26.243721
H   84.578758   57.886559   45.930626
H   21.789278    9.118794    7.399553
H    1.792003   73.688622   29.555401
H   69.786636   59.429691   74.862656
