100
TIME:    1.215, STEP:  1215
H   35.156410   10.599607   98.033646
H   67.472801   70.621773   54.642056
H    0.640034   61.315945    9.073776
H   81.680542   82.591576   73.566032
H   84.288406   70.145134   32.760780
H    9.175640   99.891792   99.070702
H   89.292351   43.380779   85.467354
H   24.389694   93.715347   96.636208
H   23.760979   69.476074   23.606779
H   41.636497   33.828957   55.269897
H   87.238693   15.130416   22.714857
H    9.465763   84.592491    6.444382
H   65.974838   88.198067    4.368229
H   94.922279    1.331195   49.702862
H   95.279076   61.495884   92.368057
H   52.671982    5.463100   32.185043
H   26.382599   62.346878   83.978416
H   27.108253   35.615341   57.424606
H   64.183876   29.324045   27.373575
H   59.781853   80.012314   99.055534
H   92.176819   35.260460   24.267429
H   78.849907   45.703598   15.799706
H   69.522026   84.740700   97.586639
H    6.154888   51.253757   16.837440
H   86.129021   89.814857   45.526909
H   41.087887   91.406311   75.290344
H   57.308777   91.970718   24.076551
H   30.023178   13.151673    6.933559
H   37.590088   59.326206   99.739433
H   47.581387   60.768692   79.977806
H   63.896397   30.999636   13.267529
H   42.472935   18.944275   86.785454
H   55.941586   79.587288    7.253750
H   29.438545   62.375221   20.565161
H   50.571098   67.075447   98.714737
H   78.194214   79.928604   16.463690
H   96.333611   60.040382    4.202622
H   13.773907   36.716206    8.181356
H   96.097794   54.571327   25.674744
H   48.753639   98.438530   33.627499
H   52.208595   97.872581   70.969406
H   22.423912   66.389549   59.882847
H   21.706343   70.785934   89.234016
H    1.773930   33.133102   99.530647
H   51.262726   83.952805   60.080780
H   62.412312   86.091042   88.105293
H   48.909351   91.282654   38.005318
H   56.304302    7.892980   43.755230
H    0.548269   31.822899   96.006485
H   51.372227   49.242474   98.687096
H   43.451923   52.343300   66.227631
H   64.179573   50.996563   94.298660
H   34.083168   29.053711   32.304008
H   48.554493   87.381218   85.431656
H   44.034248   65.019318   10.716232
H   95.086472   11.255039   51.265335
H   73.276535   54.488731   71.544029
H   35.586853   62.145973   82.259476
H   86.101494   90.104782   18.206768
H   78.840775   21.176519   29.052086
H   36.344280   22.069000   19.665230
H   55.788422   16.636307   40.380402
H   56.646545   24.299824   50.204445
H   26.470743   48.403786   94.151787
H   80.548317   63.805241    8.711408
H   26.705788   81.871864   18.025633
H   90.086502   90.368652   25.723026
H   96.437263   87.023849   24.286627
H   17.456825   62.484177   84.029884
H   54.998077    9.253492   99.174683
H   83.450096   12.732187   47.575413
H   73.784134   11.201986   45.578575
H   27.771908   58.205891   30.594234
H    3.448914   72.493027   30.997536
H   20.752316   30.372499   93.502739
H   54.384480   85.443016   14.175941
H   77.269585   21.238653   12.533037
H   89.063232   71.275963   81.540253
H   19.790232   49.943211   31.236141
H   39.939713   42.782936   16.247711
H   34.658558   41.851391   52.606091
H   32.485294   52.162430   85.179642
H   94.674171   27.535841   45.622562
H   33.751110   16.130716   52.453194
H   93.168533   72.886032   29.971733
H   23.327351   53.685108   26.156700
H   48.301826   15.012535   81.478928
H   75.514267    8.018799   83.112450
H   80.896919   26.522600   18.259335
H   58.915756   59.288780   67.648949
H   73.745338   39.038166   59.120312
H   68.184654   86.885963   56.671677
H   63.240639   64.034103   12.910437
H   64.663124   86.931618    8.740285
H   35.586475   40.897659   44.005333
H   94.275574   47.751640    4.692507
H   66.161362   37.406673   67.313309
H   11.326215   26.582672   36.596474
H   50.832176   42.087681   43.275913
H   14.697037   47.495564   80.663887
