100
TIME:    0.372, STEP:   372
H   92.165932   87.907082   98.805435
H   90.922340   24.913971    1.466179
H   86.155914    0.667423   18.971977
H   81.539047   17.323706   19.772329
H   91.839081    2.574960   55.618614
H   22.247826    0.808774   15.585695
H   33.474316   86.456749   19.543657
H   90.647827   20.785046   74.038826
H   44.483528   50.527145   76.671700
H   64.674416   21.727455   22.256601
H   65.652496   81.210831    3.916909
H   41.642956   42.337013   66.449669
H   19.599804   39.200974   88.155144
H   36.662617    3.930305   85.549324
H   85.027138   36.794548   32.890301
H   86.566406   79.199837    2.160609
H   94.158318    6.597966    7.224801
H    9.094016   76.610229   86.649704
H   51.056931   93.958069   82.960938
H   82.579689   97.732300   41.566612
H   42.201538   19.183327   47.145645
H   98.017494   44.590935   87.580452
H   80.777290   91.596764   21.706894
H   84.478683   41.143314   79.447281
H   16.278727   56.672123   39.305496
H   44.953266   16.525112   54.305351
H   30.000429   27.013035    7.348044
H    1.153281   73.802887   79.071304
H   19.260086   82.842888   39.587067
H   15.257895   81.632736   12.961662
H   30.735170   55.401619   79.974968
H   89.245758   42.233025   64.826180
H   96.560486   41.264565   31.309652
H   93.819740   39.631042   56.079308
H   71.525185   30.799942   47.379951
H    4.898744   13.708170   19.364332
H   15.478993   90.911964   37.777355
H   48.613876   52.145565   48.691662
H   33.996265   72.566887    6.471732
H   28.155525   77.358253   67.303337
H    9.820271   68.943336   51.104511
H   98.187920   28.552973   20.277182
H   14.445434   65.730713   28.343395
H   55.604538   19.005880   17.104103
H   24.387566   17.214535   87.940247
H   73.200401   70.197319   84.777092
H   40.008045   45.808811   30.801947
H   56.259281   99.213120   91.595215
H   75.902580    1.641019   29.634336
H   33.691814   36.411472   57.645607
H   43.516239   33.729759   57.339191
H   23.211100   29.219788   49.641655
H   16.595705   24.165710   81.265358
H   68.072998    1.132346   48.231403
H   11.144091   91.116211    3.562732
H   94.031693   12.140989   79.963043
H   19.835426   78.812965   91.367653
H   98.359070   41.756004    3.972792
H   19.616119   54.486694   82.925186
H   34.470322   56.381935   53.029015
H   83.166519   61.269478   85.391632
H   85.708130   24.482834   78.523651
H   99.464790   81.785713    8.037345
H   68.584969   43.818069   17.040136
H   47.087990   31.132812   30.204496
H   78.492867   23.779896   68.181404
H   57.722496   61.221348   85.022079
H   54.669228   38.812729   83.986351
H   75.443565   23.056770   36.901501
H   37.922234   66.855614    0.948505
H   10.219336   70.093681   57.685856
H   43.293751   39.179634   83.857979
H   82.736435   99.907356   52.210773
H   22.002945   25.838472   81.099541
H   80.106857   29.173010   29.598438
H   34.453014   31.413908   70.897781
H    0.729712   94.301872   97.615906
H   49.457565   26.396229   34.984470
H   79.384056   52.412334   21.836388
H   81.281906   88.694527   88.873108
H   18.161556   33.130169    2.222570
H   69.235451   46.656998   55.673737
H   41.333385   13.466472   65.331024
H   75.760590   43.994114   29.452065
H   34.216873   25.614792   11.691167
H   42.731426   22.718018   67.616051
H   91.999748   76.305489   41.281551
H   61.943634   75.510841   91.872261
H   63.403023   73.459892   25.157204
H   33.446266   93.979843   37.510571
H   39.246342   93.518829   41.317699
H    5.810955   23.483885   40.612022
H    9.152412   38.777283   47.693901
H   83.183083   35.797012   51.899952
H   50.160435   16.407696   24.634640
H   24.647293   81.041496   48.234718
H   33.074364   89.028831   15.794983
H    8.231017   19.405029   50.083496
H   90.990959   38.453838   13.891590
H   62.343945   69.149162   61.857162
