100
TIME:    8.792, STEP:  8792
H   22.754910   15.753197   91.096695
H   57.662552   81.289963   32.468342
H   30.897310    6.435977   20.135513
H   82.952316   70.419914   58.244507
H   16.415270   77.474823   27.317585
H   91.677734   91.683067   49.447548
H   92.181633   55.016953   77.999016
H   28.852432   49.221012    0.940804
H   37.503731   40.977783   46.662586
H   34.619362   42.625095   51.963081
H   82.444611   20.007149   92.859612
H   20.274414   64.388130   67.104897
H   83.112930   29.819359   51.382088
H   19.754171   77.976479   26.315075
H   87.393623   84.688057   28.093620
H   48.016388   42.748558    3.227705
H   17.106819   63.491779   73.758797
H   89.074173   67.020256   94.753006
H   82.203674   47.189632   26.558582
H   55.641697   19.106138   14.932795
H   42.546974   80.946075   18.614660
H    5.277947   55.755493   70.558273
H   68.356331   23.121622   80.800522
H    2.153942   42.006073   54.104465
H   15.132438   88.910446    1.470152
H    6.151611   66.915329   63.516712
H    3.934568   77.004959   74.415939
H   90.698425   66.820541   57.391197
H    2.344134   46.770809   41.568871
H   38.116692   73.237350   82.327606
H   62.078281   10.451775   13.784019
H   20.889393    9.599819   85.344612
H   89.653336   25.217525   89.849747
H   49.585342   67.988373    1.359249
H   62.147133   93.992256   59.966351
H   36.910664   74.059387   91.785896
H   23.066532   82.552498    1.240660
H    0.603668   98.052773   42.867706
H   73.960075   89.855553   92.302597
H   35.085518   89.105659   29.770487
H   34.380051   57.855003   49.480190
H   59.272034   76.080994   28.808479
H   86.951141   16.228436   36.528164
H   17.945820   60.221222   40.369221
H   94.015137   85.011650    8.466226
H   64.634911   30.605026   18.879782
H   10.429059    2.976495    9.862373
H   56.724239   85.924744   12.576372
H   22.029907    4.297580   93.756958
H   10.327990   64.553581   68.797112
H   42.897892   20.832756   46.109497
H   32.420788   47.906940   96.895760
H   91.238441   72.987732   92.246841
H   73.086731   63.759697   19.782742
H   40.763130   29.093435   75.122894
H    4.546185    3.285393   93.326355
H   53.625473   35.857185   92.179726
H   71.385437   46.591530   87.092674
H   83.683830   10.261712   36.523697
H   78.837044    3.569614   13.545189
H   14.306454   69.701050   28.902645
H   86.872643   46.107376   97.543877
H   70.950562    7.332391   30.576630
H   46.771160   89.656769   88.436081
H   81.293320   58.642460   14.329332
H   61.242439    5.197185   66.036018
H   82.169632   52.322948   91.539291
H   73.042130   20.361416   86.511047
H   95.093201   18.049278    8.812963
H    8.585952   90.244156   83.195923
H   42.842472   97.191597   56.688484
H   49.266960   59.671288    0.496597
H   33.736832   83.422234   36.323238
H   36.662243   92.974403   80.763100
H   85.991028   41.260975   67.917007
H   33.505898   71.058708    4.339896
H   65.284012   64.831543   46.670853
H   45.039265   75.838493   99.997498
H   83.121468   27.693844   15.774935
H   68.357445   30.077982   63.482567
H   82.933357   20.239634    5.468925
H    1.041364    1.489399   51.464714
H   73.988518   54.151524   67.249565
H   55.023872   64.509743   60.403004
H   24.233658   98.929062   95.467957
H   48.945370   31.997894   52.326416
H   54.352650   64.102135   42.779732
H   97.428581    1.529501    4.418497
H   38.144779    4.648207   56.283577
H   89.007858   47.550674   38.509590
H   83.827538   48.172176   19.133080
H   28.817865   56.721710    1.052614
H   49.037601   91.318962   98.903442
H   96.978439   46.573353   19.629251
H    4.581213   62.196850   18.117121
H   20.104782   48.545105   13.330872
H   64.734703   72.233635   31.553001
H   21.306719   21.488903    2.380365
H   89.882561   74.768181    8.614620
H   85.316269   53.015278   50.779423
