100
TIME:    3.175, STEP:  3175
H    2.610397   30.857567   96.239212
H   12.951717   76.889038   78.278061
H   34.330139    2.326731   86.070091
H   82.009521    1.839271   66.132141
H   66.732864   27.247753   79.617706
H   78.787239   97.768379   93.176598
H   86.568459   75.729469   38.742073
H   70.337555   63.278675   16.675503
H   75.580376   81.030029    0.231277
H   88.077126   61.971657   32.019615
H    4.924255   93.995728   33.917652
H   34.660072   82.837128   66.929085
H   41.300461   69.615433    9.560167
H   97.873940   95.289619   98.858025
H   19.120647   86.423721   98.152168
H   73.864395   34.032074   69.488625
H   68.792519   91.972702   62.421124
H   68.991539   40.300499   89.471863
H   94.719154   11.547244   30.633600
H    6.980644   38.390659   32.501366
H   75.867722   40.136383   71.065903
H   66.770691   48.298843   48.897690
H   43.353203   68.800148   41.510590
H   24.049637   74.760834   71.271324
H   16.028187   34.366104   59.987892
H   32.100765   33.005436   91.578606
H   88.295105   10.495332   62.970898
H   64.643547    4.637955   71.722008
H   80.207886   37.152512    7.088839
H   22.736732   12.258882   35.791534
H   41.011585    6.764361   58.183052
H   66.228645   64.786690    5.338399
H   93.999847   36.183708   83.826027
H   12.252217   82.752998   37.992584
H    1.848489   18.914642   18.064224
H   48.608364   33.897556    9.725926
H   84.322639   88.259750   58.642879
H   32.762917    0.842846   46.491756
H   11.053729   12.239729   36.630798
H   64.142914   14.950130   87.836769
H   18.263002   65.123047   17.147322
H   46.270256   54.355431   51.965118
H   38.588970   82.539474   30.807541
H   76.614059   65.985291   91.168663
H   81.247490    6.623360   27.804556
H   37.125751   23.475056   96.060616
H   66.539352   97.504364   55.939407
H   56.408978   28.072882   65.028938
H   57.835762   69.495171   17.821516
H   92.469353   79.067375   61.599537
H   43.302387   63.117783   86.893524
H   59.431583   69.123734   65.630424
H   74.738091   40.418457   18.469845
H    3.170277   55.406372   71.920624
H   87.994736   36.833115   27.352407
H   97.538864    9.195013   84.542313
H   97.533836   97.933174   57.956383
H   89.639397   77.047928   31.776043
H   40.681877   72.920105   67.737831
H   49.500732   71.829819   73.306038
H   59.982216   30.920170   66.846725
H   86.227654   98.389633   51.697098
H   89.611122   90.626518   15.751205
H   61.062225   59.065712   40.940350
H   58.345295    7.261523   91.242714
H    6.299965   84.434242   33.914581
H   32.832802   58.128460   20.351477
H   61.046806   99.118164   17.985960
H   15.142809   21.651070   61.103504
H   94.711487    7.835290   95.047485
H   21.211861   79.372581   24.062588
H   12.174258   46.153122   89.080444
H   99.975006   61.256062   80.341057
H   60.320461   48.459732   14.508858
H   15.251546   33.164463   42.084873
H    0.714064   11.059969   82.291992
H   55.225040   51.359375   47.201038
H   81.147598   43.115368   89.782898
H   13.766503   44.192753   53.106361
H   43.817421   36.036350   47.392075
H   73.011063   62.128490   69.751129
H   79.548431   64.962723   21.286108
H   18.680975   60.253326   32.302860
H   68.584015   83.850433   73.429047
H   97.732574   50.287281   39.971718
H   78.219849   25.676651   62.264843
H   79.205788   72.504555   74.939529
H    7.064718   51.096146   62.723511
H   21.573631   17.393435    2.224123
H   85.625946   78.647903   37.716255
H   53.956696   44.872128    0.511926
H   13.209940   34.283661   94.022865
H   88.978348   22.782415   64.532066
H   54.104298    5.819401   40.892456
H    1.695244   65.333466   89.045616
H   56.163574   70.354073    3.455942
H   10.586028   49.887249   54.592537
H   18.521330   43.270905    5.233648
H   57.463737   50.536472   79.097542
H   36.422146   97.159340   91.881622
