100
TIME:    1.423, STEP:  1423
H   21.090620   91.525040   97.843216
H   61.686913   81.898384   67.762657
H    4.214881   76.280540    6.631404
H   81.715454   74.022240   62.165386
H   82.425369   86.817253   27.120888
H    5.950111   99.666451   19.669905
H   78.390251   57.426556    1.733239
H    8.041306   11.710114   77.539284
H   18.647942   49.477783   10.513778
H   35.952171   36.815529   63.415527
H   67.891037   23.499760    2.679280
H    1.526460   95.018517   91.638756
H   52.744499   75.613838   83.694145
H   84.623207    0.689933   65.532173
H   97.808617   42.917881   82.370499
H   44.308945   87.270256   14.919444
H    9.660341   76.102249    2.916577
H   31.553200   25.500351   50.213669
H   67.424355   38.050484   38.331219
H   54.178459   75.594345   13.217051
H   79.833801   14.552818   18.621983
H   98.794243   45.978134   98.088600
H   66.744926   83.049049   91.635712
H   86.829384   53.748386    1.389139
H   78.689568   73.317299   47.061455
H   40.134151   85.207825   55.794189
H   39.371887   83.325211   28.204115
H   12.473495   22.860531   13.808833
H   42.112793   78.197784   89.906914
H   55.557217   55.620743   96.513451
H   72.078529   49.652267   96.808624
H   55.606236   13.197865   67.529839
H   70.592850   64.368782   25.992033
H   38.226875   43.313210   11.802824
H   45.400932   51.352303   11.380074
H   96.278687   96.267471   15.747851
H   16.283569   52.423195   20.591986
H    5.177197   32.909199   22.858936
H   86.747696   50.131142    5.738524
H   29.163069   78.967094   49.993343
H   37.994606    5.009836   75.869797
H    3.730063   75.723778   69.655060
H   23.497969   72.033249    4.258637
H   88.491539   36.619553   19.867762
H   33.221100   75.745285   77.879959
H   59.728840   90.058327   88.949532
H   51.105640    2.502443   39.782661
H   56.315411   10.034521   56.625103
H    6.627890   14.596947   87.710098
H   55.734653   52.408367   84.138268
H   43.436054   32.262489   68.420746
H   74.288216   31.694941   80.644852
H   38.397987   30.259766   20.223606
H   43.738209   83.988396   94.610367
H   27.474800   83.252960   12.481277
H   95.346725   11.036442   44.184525
H   86.463791   48.487022   91.326500
H   20.097961   42.503151   76.902054
H    2.506788   98.893112    2.238445
H   65.113968   37.164677   23.136070
H   49.464886   12.396611    3.448248
H   48.406097   14.700005   30.968414
H   70.755035   10.115192   35.934914
H   40.754250   49.535255   88.505547
H   88.803444   47.191837   28.082075
H   13.928020   71.531532   30.324217
H   73.398514   97.560547   35.765514
H   82.069344   98.919357   34.230228
H   27.824135   47.538620   70.985451
H   59.211334   19.715479   98.736694
H   76.845360   98.579369   45.080784
H   56.633450    4.298513   60.808189
H   14.209347   47.917927   25.260616
H   98.871300   59.330597   18.635475
H   30.780819   30.668459    9.270687
H   59.302326   98.773094    0.180460
H   96.153862    3.210564   16.213465
H   98.835449   57.675369   93.026337
H   29.760813   49.333836   33.555946
H   29.739029   31.453997   98.328560
H   38.728992   44.003246   65.037971
H   48.092594   53.520828   67.787064
H    7.835451   31.007215   65.433594
H   48.060314   33.929546   33.454659
H   83.040848   59.876007    9.808525
H   18.539631   61.326099   40.600792
H   62.193672   99.889221   91.397141
H   78.862656   91.365921   80.951073
H   85.213326   14.942058   16.557369
H   40.526169   50.730553   75.085228
H   82.257545   50.268757   63.512890
H   83.574547    2.529641   60.634201
H   76.586586   70.267502   29.002462
H   84.766151   99.547585   22.764637
H   31.990524   22.265701   48.785118
H   11.455597   39.537773   93.948959
H   49.651108   49.343441   55.351151
H   12.089917   28.353668   33.268715
H   40.923485   42.984287   25.853184
H   27.614517   42.152424   60.630684
