100
TIME:    1.489, STEP:  1489
H   16.627493   85.472488   97.782791
H   59.851006   85.476540   71.925926
H    5.349293   81.028923    5.856450
H   81.726532   71.303123   58.547451
H   81.834213   92.107445   25.331306
H    4.926603   99.594948   26.206106
H   74.930931   61.883389    6.894586
H    2.853836   17.419849   71.479683
H   17.025536   43.132172    6.359195
H   34.148491   37.763191   65.999809
H   61.751877   26.155430   96.321701
H   99.007462   98.326775   86.940727
H   48.546486   71.620766   77.134026
H   81.355232    0.486455   70.554482
H   98.611259   37.022938   79.198196
H   41.655289   81.497673    9.441054
H    4.354136   80.466934    8.925626
H   32.963615   22.290787   47.925583
H   68.452583   40.819450   41.808163
H   52.400459   74.192490   17.710642
H   75.917267    7.982125   16.830639
H    5.122834   46.065247   92.469093
H   65.863731   82.512276   89.747437
H   80.697273   54.539951   96.487564
H   76.328972   68.082497   47.548378
H   39.831524   83.240997   49.608200
H   33.680374   80.581924   29.513823
H    6.904834   25.941189   15.990420
H   43.547882   84.185883   86.786980
H   58.088009   53.987259    1.760265
H   74.674782   55.570877   91.585907
H   59.773533   11.374421   61.419884
H   75.241531   59.539833   31.937834
H   41.015480   37.264687    9.022402
H   43.760399   46.363228   15.398827
H    2.017110    1.451998   15.520780
H   22.613823   50.006203   25.792547
H    2.449394   31.701206   27.516178
H   83.780838   48.722237   99.412674
H   22.946615   72.788658   55.186352
H   33.484398    7.274445   77.424728
H   97.798340   78.685600   72.755859
H   24.066465   72.429031    9.025826
H   84.276909   37.725830   26.320879
H   27.496155   73.140976   83.527664
H   58.877354   91.317177   89.217415
H   51.802540    6.062912   40.346626
H   56.318935   10.714048   60.708813
H    8.556996    9.131020   85.077591
H   57.118885   53.412930   79.521812
H   43.431019   25.890451   69.116638
H   77.495766   25.570635   76.312393
H   39.767113   30.642456   16.390408
H   42.209965   82.911827   97.522842
H   22.220360   89.038635   13.041340
H   95.429306   10.967079   41.937729
H   90.648209   46.582634   97.603630
H   15.183180   36.270332   75.202103
H    7.711891    1.681808   97.171707
H   60.758724   42.237843   21.258873
H   53.628155    9.327409   98.302330
H   46.063629   14.085560   27.981918
H   75.231506    5.614333   31.407082
H   45.286613   49.894279   86.713951
H   91.422859   41.920277   34.228626
H    9.873642   68.250465   34.226650
H   68.103287   99.842590   38.951916
H   77.510292    2.694048   37.385410
H   31.113762   42.796280   66.846352
H   60.548233   23.035067   98.597717
H   74.749626   94.088799   44.289219
H   51.191692    2.107988   65.640495
H    9.905842   44.653477   23.568218
H   97.419090   55.153732   14.712898
H   33.962784   30.762369   14.274113
H   60.862797    3.003048   95.739250
H    2.146091   97.490219   17.381083
H    1.936259   53.359528   96.670959
H   32.924553   49.140476   34.292122
H   26.502274   27.859476   92.642586
H   40.020573   44.686047   68.982704
H   53.044910   53.951859   62.268265
H   12.011558   32.108734   71.719788
H   52.600735   39.577251   27.426277
H   79.827255   55.747482    3.410668
H   17.020451   63.750645   45.184013
H   66.601662   95.090485   94.544266
H   79.925125   86.081772   80.265251
H   86.582954   11.267348   16.017323
H   34.690643   48.014961   77.444817
H   84.958534   53.832310   64.906693
H   88.457878    7.493288   61.891541
H   80.821358   72.245407   34.108505
H   91.144997    3.550983   27.214672
H   30.849251   16.353638   50.301781
H   16.906921   36.931450   90.539993
H   44.412277   53.131069   51.555466
H   12.332246   28.915619   32.212791
H   37.779381   43.268787   20.324818
H   31.713333   40.457005   54.273994
