100
TIME:    9.572, STEP:  9572
H   70.006744   44.223457   90.382584
H   36.120193   23.556339   81.650627
H   44.304752   62.551872   10.979195
H   83.083237   38.284904   15.488223
H    9.425905   39.994995    6.170271
H   79.585449   90.838036   26.692757
H   51.300610    7.684512   38.996044
H   67.545975   16.702045   29.324394
H   18.329842   65.983170   97.563622
H   13.312429   53.824741   82.503242
H    9.890900   51.391205   17.723764
H   90.503822    3.485570   11.583836
H   33.375076   82.607964   73.868088
H   81.133560   75.572304   85.673409
H   96.867500   15.014595   90.583275
H   16.653542   74.526779   38.481506
H   54.383736   15.084873   44.765274
H    5.758589   29.065239   67.711990
H   94.355469   79.910889   67.650436
H   34.628971    2.541731   68.038872
H   96.260178    3.294573   97.442780
H   80.057312   56.790955    4.134061
H   57.942207   16.780909   58.484543
H   29.680717   51.337128   96.173904
H   87.235336   27.052948    7.227821
H    2.472296   43.920944   90.114052
H   36.674576   44.580738   89.888351
H   24.884382    3.228307   83.172142
H   19.305264   17.538820    4.699060
H   68.026054   53.932541   44.334816
H   92.773537   80.395218   52.072922
H   70.139267   88.047821   13.136055
H   44.596695   68.149353   60.118309
H   82.541580   96.506096   68.498329
H   42.735207   34.935249    7.420333
H    4.715326   35.153500   89.334114
H   97.878693   53.988045   62.701496
H   68.361626   83.782448   97.911507
H   41.035389   72.859703   16.714516
H   61.617123   16.083870   91.139664
H   81.073318   84.620911   67.856651
H   93.537590   79.139771   68.626701
H   93.663788   20.908840   92.868645
H   68.146400   73.314980   16.633190
H   26.356150   54.243465   75.215897
H   54.571518   45.482067   22.048651
H   16.527401   45.398632   17.352835
H   56.771847   93.958496   60.838291
H   44.827911   39.696918   62.645248
H   26.699507   76.431633   14.258303
H   44.580128   45.659821   51.666702
H   70.328201   75.529068   45.693977
H    7.415037   77.510437   46.946243
H   55.022675   51.030663   54.201851
H   78.657814   97.448700   81.752228
H    5.517673    2.464909   66.773315
H    3.076134   13.350601   66.364296
H   13.305272   72.929726   67.002342
H   45.203045   43.221939   76.643425
H   27.365757   63.525158   91.360146
H   63.513554   33.429211   68.093224
H   59.188927   38.847244   62.254578
H   23.903351   54.107079   77.089691
H    0.331440   93.905731   67.262680
H   12.251258   96.342628   86.967049
H   13.326645   66.421135   12.156074
H   19.589085   79.289978   29.198948
H   19.162430   64.970345   23.799561
H   33.969368   62.003464   59.895008
H   24.427322   29.421198   81.541565
H   18.070435   44.118992   47.333626
H   85.036079   33.772850   57.668476
H   82.879852   44.839375   16.322170
H   19.493816   43.607967   34.417274
H   23.563330   42.409504   27.056952
H   51.947823   21.047783   51.854424
H   36.124947   97.318649   60.506760
H   81.681999   24.839043   43.076401
H   20.526251   25.402737   24.481104
H   30.105030   87.586678   96.284981
H   98.203438   28.309092   52.088829
H   59.570023    6.552895   86.210152
H   23.323225   67.195961   41.532291
H    8.687860   31.256390   89.163292
H   86.254837   50.133148   19.855947
H   30.991421   60.651611    6.491916
H    6.447138    7.389575   79.973030
H    9.972338   39.116127   96.334015
H   54.331303   61.218529   49.904182
H   20.045229   15.457321   66.390198
H   15.749002   90.290604   35.605247
H   86.529968   15.385485   15.912354
H   99.037292   14.721701   59.222038
H   70.624489   93.762680   74.889809
H   91.095627   92.327736   36.039009
H   84.529526   17.744482   73.042603
H    2.822337   16.995914   86.693344
H   19.801134   60.081478   86.717979
H   52.724968   78.136406   43.282681
H   33.765068   33.002308   75.639282
