100
TIME:    8.332, STEP:  8332
H   53.862785   57.936974   91.517838
H   70.367020   56.364269    3.463809
H   22.990358   73.341507   25.534912
H   82.875107   89.371330   83.457710
H   20.537203   40.603794   39.789764
H   98.809082   92.181419    3.891531
H   16.290424   23.954180   42.026417
H   65.007523    9.426402   43.177582
H   48.811409   85.204773   75.618240
H   47.183449   36.020176   33.952217
H   25.232681    1.498872   37.169212
H   37.832550   41.330578   99.848732
H   12.445793   57.660393   97.096146
H   42.530022   79.394325   91.308495
H   81.806465   25.777512   50.214134
H   66.511566   82.981712   41.412384
H   54.097176   33.067738   31.883184
H   79.238937   89.403984   10.698683
H   75.037231   27.890774    2.325248
H   68.034958   28.874891   83.613930
H   69.844032   26.740307   31.099783
H   61.177296   55.144836    9.731476
H   74.497993   26.861017   93.961227
H   44.895187   36.503143   88.267166
H   31.583366   25.390862   98.073647
H    8.321346   80.476120    6.803547
H   43.601448   96.124832   65.291183
H   29.512033   45.349293   42.184441
H   92.341850    5.036484   63.313866
H   20.478981   84.622238   45.758392
H   43.972660   69.201454   50.177757
H   91.844963   22.308239   27.929070
H   57.252705   58.873482   48.409317
H   30.149445   10.144600   20.737196
H   73.595192   28.820671   31.977919
H   96.924576   38.028107   93.231819
H   78.945824   99.398201   64.994347
H   19.615822    6.470732   10.408141
H   93.374748   99.878746   36.879295
H   78.411728   32.169128   93.578857
H   65.818344   42.072685   38.642788
H   98.038208   74.277100    5.324567
H   82.992401   13.469002    3.303186
H   47.317005   52.496765   95.394318
H   33.916733    3.156452   69.102959
H   70.573021   21.832977   17.010962
H    6.832578   77.960396    5.444987
H   56.696163   81.186890   84.114510
H    8.584930   42.393478   12.106430
H    0.672421   57.551807    0.958433
H   42.929478   65.242683   41.259338
H   10.063646   90.591064   27.092884
H   81.699562   70.320496   18.962561
H   83.741638   71.263168   99.485367
H   77.388496   88.781464   71.213287
H    3.973255    3.769268    8.985855
H   24.464859   49.130196   48.430031
H    5.638217   90.032387   98.940819
H   47.402401   90.824883   71.839233
H    9.193604   68.214371   26.628685
H   85.289291   91.095093   64.766518
H    3.198971   50.388992   18.357529
H   39.720112   38.722687   62.120209
H   15.182892   87.150970    0.923187
H   63.036606   95.380646   71.491745
H   89.501106   28.064812   38.837223
H   19.076593   36.421307   69.331039
H    4.817463   94.052788   64.520386
H   72.169006   51.101952   37.664520
H   99.243324   67.137466   84.171570
H   57.452610   28.491470   62.205452
H   87.147369   74.944725   66.777145
H   63.729202    6.177382   48.118740
H   46.787212   22.087952    8.094858
H   63.831909   40.583637   33.039387
H   22.629892   41.576057   35.291656
H   23.506310    4.643920   38.511215
H   23.430445    5.915096   74.588562
H   61.061081   29.045010   10.641382
H   90.916649   55.136101    3.112030
H   73.927925   15.480721   77.975189
H   66.521774   98.504776   89.948982
H   44.892281   46.458652   23.440472
H   23.378040   25.146643    2.418518
H   46.631424   27.704220   40.058983
H   59.533596   15.101302   20.382751
H   23.630297   97.547874   20.845222
H   90.030510   38.339165    9.188126
H   28.598255   30.259329   60.045784
H   29.677801   66.477066   22.066423
H   65.002464   23.335293    9.418723
H   94.782524   22.125347   92.286217
H   19.550602   77.519524   63.330933
H   52.520729   18.665638   88.612785
H   12.535355    3.399044    7.547495
H   82.110611   66.710388   37.090431
H    1.247731   45.835014   58.007805
H   22.194628   98.727928   11.615671
H   11.795693   72.781792   47.145657
H   56.742634   64.818039   95.091690
