100
TIME:    7.333, STEP:  7333
H   21.421328   49.549507   92.432449
H   97.957809    2.227255   40.474461
H    5.818400    1.469863   37.262707
H   82.707428   30.531693   38.216015
H   29.488966   60.529629   66.877518
H   14.301818   93.263710    4.957348
H   68.646149   56.498035   63.903301
H   43.526955   22.999882   34.902206
H   73.368736   81.255280   38.500622
H   74.469368   21.676012   94.834358
H   18.157227   61.301731   33.398094
H   75.961853   91.256180   70.958183
H   76.148613   18.128887   96.373512
H   91.995277   82.473518   15.284122
H   69.672615   15.013115   98.259552
H    6.678796   70.357971   24.338026
H   34.430946   66.990494   40.940273
H   57.880566   38.015121   45.326416
H   59.475803   85.981415   49.691723
H   94.955032   50.086826   15.597300
H   29.126099   26.193909   58.210529
H   65.402191   53.818649   94.805618
H   87.836082   34.983406   22.544790
H   37.716415   24.552217   62.462517
H   67.314156    4.615654   90.695778
H   13.031597    9.925320    0.814248
H   29.745779   37.652771   45.467472
H   13.804807   98.719368    9.161572
H   70.619820   14.399286   10.537622
H   82.173279    9.347960   66.341057
H    4.654073   79.619583   29.215385
H   28.767239   49.906651   20.411491
H   86.883675   31.964640   58.411507
H   87.938103    1.697098   62.823563
H   98.457390    4.459037   71.198364
H   10.083019   59.780899   96.371986
H   83.128891   35.985962   86.277130
H   60.904068   24.754353   39.910431
H   35.544201   21.642736   33.689758
H   72.506126   25.692156   14.979287
H   34.092438    7.797599   15.106852
H   82.228584   70.359512   54.321629
H   74.395050    7.476389   31.144039
H   11.107615   35.726646   97.717766
H   20.572723   42.568676   83.614449
H   83.469048    2.782144   12.952372
H   99.023727   23.631866   95.853371
H   56.635189   70.897507   22.301998
H   79.380318   25.131123   51.958923
H   79.697510   42.346386   70.809792
H   42.998074   61.689758   30.726521
H   61.512447   83.290985   92.670837
H   60.982494   64.527954   76.980293
H    6.879044   87.558502   55.401077
H   56.930679    1.233425   62.721493
H    2.729002    4.820119   42.994171
H   61.130825   77.955711   53.416801
H   80.025558   84.375816   24.674437
H   68.613335   48.612766   48.531029
H   75.115730   91.426437   55.042625
H   22.271944   37.553185   42.657166
H   38.655434   59.687546   63.561066
H   71.898888    6.891955   30.624634
H   46.584118   81.709030   28.048229
H   23.381390   75.170441   78.459175
H   50.869598   77.728233   79.768036
H   99.227692    1.884377   21.099646
H   73.825233   36.920036   16.762405
H   22.377266   22.883713    0.318667
H   78.954185   16.962908   86.290421
H   89.175972   96.464432   74.186867
H   69.411903    8.115100   93.552559
H   28.866301   55.591244   73.732727
H   68.777657   85.313660   67.451630
H   15.709374   39.112637   57.294666
H   99.011406   77.550072    2.512177
H   32.776081   91.110420   20.793020
H   76.498001   71.234428   19.413141
H   13.158172   31.979389   99.492867
H   39.907364    9.555974   89.176765
H   54.370476    5.145608   18.266281
H   91.559273   92.026276   73.524803
H   81.704079   29.751745   28.300941
H   54.647297   39.660152   93.661369
H   95.273529   90.198265   36.900185
H   82.522324   78.408554   51.009033
H   56.909275   70.183632   73.209068
H   73.963829   18.279558   19.546104
H    7.863250   85.882851   68.216316
H   18.002783    7.575031   86.353836
H   24.119312   69.391197   88.321335
H   20.866640   46.990784   73.247047
H   55.512897   47.546558   86.076729
H   55.971802   58.057457   21.251688
H   29.810085   92.883682   84.591370
H   99.597290    6.160238   88.689781
H   80.543449   88.505692   15.461185
H   24.122934   49.295429   31.672346
H   59.385826   68.467873   30.821720
H   94.692726   90.457657   91.328873
