100
TIME:    8.580, STEP:  8580
H   37.091301   35.194054   91.290787
H   63.517654   69.802963   19.101051
H   27.253237   91.183914   22.623932
H   82.916733   79.154045   69.864937
H   18.314943   60.482090   33.065277
H   94.964355   91.912743   28.451805
H    3.293090   40.701065   61.420338
H   45.515213   30.880953   20.406281
H   42.715096   61.360657   60.008015
H   40.409767   39.581089   43.662422
H    2.164331   11.477408   13.280836
H   28.366425   53.761608   82.195534
H   96.631424   42.650444   72.449783
H   30.250494   78.629921   10.181194
H   84.818672    3.624926   38.288292
H   56.540253   61.290794   20.825932
H   34.154549   49.470264   54.459602
H   84.540573   77.336235    2.102309
H   78.900879   38.295376   15.390216
H   61.352848   23.608259    0.498934
H   55.127357    2.050474   24.368673
H   84.953300   55.474060   88.612045
H   71.186836   24.844995   86.865891
H   21.851843   39.469940   69.849564
H   22.714195    5.722588   99.905190
H    7.151588   73.165085   83.466156
H   22.215590   85.816727   70.210617
H    8.586634   56.925098   50.382866
H   97.734306   27.536501   51.590477
H   29.987679   78.484299   65.473969
H   53.733952   91.441078   30.556786
H    7.503779   15.456944    4.970483
H   74.721207   40.728340   70.751114
H   40.628006   87.416962   10.290022
H   67.423195   10.043571   47.067333
H   18.482241   57.454193   92.452278
H    2.733044   90.316170   84.535851
H    9.365732    1.932027   27.908081
H   82.907707   94.474937   12.846725
H   55.052711    8.952090   13.090722
H   48.869003   50.581413   44.485561
H   77.138184   75.249634   17.985435
H   85.126678   14.956657   21.215939
H   31.482105   56.661255   19.641834
H   12.404701   93.373772   90.324638
H   67.371605   26.562256   18.018499
H    8.771596   91.447212    7.826448
H   56.711300   83.741211   99.459358
H   15.833527   21.854843    2.213187
H    5.878031   61.326527   83.619255
H   42.912449   41.300179   43.874207
H   22.116972   67.579468   10.812549
H   86.842262   71.758484    4.559027
H   77.997253   67.217880   10.428325
H   57.642647   10.514688   73.321075
H    4.282139    3.508396    0.543340
H   40.186234   41.974312   72.016823
H   87.171570   66.612099   92.553123
H   66.962822    1.303417   52.799911
H   92.827827   87.275284   19.574974
H    0.933120   79.560913   45.431179
H   94.396935   48.080643    7.136116
H   56.557819   21.799265   45.114105
H   32.212658   88.501923   94.190903
H   72.879440   75.574249   94.586594
H   74.265999   15.735965   53.500919
H   99.178543   44.994366   81.304184
H   87.686356    8.236341   76.376221
H   84.528137   33.282249   22.109650
H    4.280174   79.594986   83.645569
H   49.575840   11.616744   59.231087
H   66.724152   66.710350   84.956345
H   47.559402   93.909660   41.759426
H   41.328533    6.392145   93.359657
H   75.778564   40.948811   51.842976
H   28.493479   57.471504   18.604555
H   46.030106   83.179688   42.910324
H   35.080738   89.699883   88.287292
H   72.954292   28.316555   13.409037
H   78.754295   41.626579   81.746605
H   78.783028   18.046396   92.797821
H   85.132370    0.113166   69.200325
H   60.579597   50.606113   47.059429
H   40.439491   46.368629   79.766594
H   34.556107   12.190859   16.018719
H   53.825161   24.210770   37.604553
H   40.193653   79.516258   32.670784
H   94.019035   18.493679    6.616648
H   33.745365   16.451803   58.017464
H    7.751140   56.273483   30.931810
H   75.151634   36.725613   14.656028
H   13.132013   40.777069   97.012657
H   35.447941   84.959221   82.509155
H   76.488815   33.711536    5.334898
H    8.246933   81.185654   13.245996
H    2.594404   56.916931   24.280983
H   81.562462   60.067314   43.745232
H   21.715929   10.999051    6.636637
H   99.981804   73.852715   26.372402
H   72.147141   58.454700   71.202164
