100
TIME:    8.190, STEP:  8190
H   63.465813   70.959129   91.647842
H   74.288834   48.669064   94.510574
H   20.549517   63.125290   27.201683
H   82.851273   95.221550   91.240669
H   21.809626   29.221867   43.640076
H    1.010888   92.335258   89.829170
H   23.732662   14.365237   30.921833
H   76.168442   97.141624   56.215988
H   52.302040   98.857452   84.556076
H   51.061928   33.981266   28.391991
H   38.441177   95.785202   50.846809
H   43.252670   34.212811    9.956177
H   21.500740   66.255081   11.207685
H   49.561119   79.832008   80.502922
H   80.081734   38.461655   57.042641
H   72.220947   95.401512   53.199493
H   65.515938   23.675968   18.956366
H   76.203323   96.313744   15.620722
H   72.824982   21.933300   94.843781
H   71.861435   31.890463   73.945900
H   78.270515   40.877254   34.953472
H   47.563618   54.956329   21.824097
H   76.393898   28.015352   98.023880
H   58.089600   34.804413   98.812729
H   36.662178   36.652534   97.024940
H    8.990871   84.662277   20.166611
H   55.846825    2.027303   62.473827
H   41.493179   38.721210   37.490181
H   89.254234   92.153122   70.026451
H   15.034437   88.136703   34.469635
H   38.383533   56.468117   61.412346
H   82.878960   26.231136   41.074730
H   47.249912   69.263039   35.616837
H   24.149178   23.157967   26.719046
H   77.129158   39.572075   23.338011
H   84.580612   26.905355   93.678169
H   65.325645    4.598829   53.805264
H   25.485001    9.069475    0.387913
H   99.367973    2.972361   50.640312
H   91.787064   45.463211   82.407104
H   75.523209   37.200752   35.297329
H   10.005380   73.720245   98.075096
H   81.770355   12.617199   93.046059
H   56.383762   50.112259   81.509796
H   46.233612    8.758472   56.951210
H   72.406090   19.125084   16.434065
H    5.722526   70.238106    4.081290
H   56.687496   79.724335   75.328346
H    4.434408   54.153503   17.771038
H   97.691162   55.390476   10.887189
H   42.939228   78.951698   39.762115
H    3.162188    3.767236   36.414520
H   78.754951   69.497131   27.209745
H   87.030762   73.579422   93.219131
H   88.694588   76.337830   70.006409
H    3.796394    3.918638   13.819870
H   15.463088   53.227516   34.924690
H   16.211672    3.442503    2.598526
H   36.202480   84.825157   82.740143
H   18.563904   57.299793   30.667503
H   76.331955   97.699341   75.838600
H    8.238838   51.710709   24.782478
H   30.079273   48.412384   71.857574
H    5.431948   86.377441    4.778770
H   57.399811    6.721978   58.268082
H   98.224434   35.124077   30.441074
H   30.469896   31.512486   62.475445
H   14.626602   85.931816   57.731964
H   65.092407   61.305168   46.570938
H   96.359383   60.005138   84.472748
H   61.962696   38.153885   63.908516
H   98.841309   79.659569   56.368885
H   72.987717   13.201403   51.759960
H   49.912746   31.075081   16.531633
H   56.991486   40.374546   22.272818
H   19.272516   32.474632   44.845932
H   10.609397   16.934761   35.992371
H   16.759569   15.199612   66.744934
H   54.252075   29.462109    9.056677
H   97.880577   62.871391   15.345268
H   71.147987   14.011666   69.488037
H   55.866531   97.583908    1.829160
H   35.910027   44.083897    9.916715
H   13.608716   12.995045   15.387800
H   53.545517   36.586803   53.824333
H   62.802135    9.885398   10.521731
H   14.146440    7.872553   14.074135
H   87.746758   49.702675   10.660431
H   25.650936   38.165672   61.207161
H   42.232922   72.318619   16.990274
H   59.191242   15.668242    6.419872
H   84.275963   11.445871   89.579948
H   10.448259   73.259697   52.349854
H   38.797630   10.050649   79.037926
H   14.990822   16.118889    4.284644
H   70.382004   72.317932   44.424873
H   12.518881   37.685875   66.174278
H   22.468721   91.701164   14.466570
H   18.560112   72.168602   59.040020
H   47.922886   68.462509    8.770915
