100
TIME:    3.296, STEP:  3296
H   94.427643   19.761223   96.128433
H    9.585657   83.448990   85.910721
H   36.410011   11.031650   84.650276
H   82.029831   96.854057   59.499554
H   65.649078   36.946438   76.336807
H   76.911385   97.637291    5.159466
H   80.226372   83.899406   48.204430
H   60.827194   73.747208    5.565529
H   72.605965   69.396408   92.615211
H   84.770378   63.709038   36.758179
H   93.669144   98.864456   22.262411
H   30.041519   88.902267   58.316032
H   33.604103   62.294800   97.533775
H   91.882652   94.916664    8.066372
H   20.592621   75.615402   92.336281
H   68.999359   23.449005   59.444679
H   59.062447   99.976471   73.436234
H   71.576378   34.416298   85.277039
H   96.604240   16.623682   37.007999
H    3.720978   35.821514   40.739616
H   68.687408   28.090111   67.781311
H   78.371078   48.459473   38.593414
H   41.737679   67.816063   38.048752
H   12.807434   76.212036   62.285137
H   11.700660   24.769890   60.881508
H   31.545568   29.400175   80.236702
H   77.861588    5.465340   65.371498
H   54.434299   10.285828   75.721123
H   82.838882   48.130692    1.369330
H   27.376057    9.263930   45.410828
H   45.774151   17.614489   48.609917
H   73.868690   61.443726   94.136848
H    2.522629   27.330879   94.726662
H   17.364952   71.664040   32.894913
H   98.840652    9.767848   25.431938
H   59.128963   43.403301    9.309781
H   95.928566   83.828598   68.177238
H   27.762177   98.628792   55.030033
H    5.946087    9.603655   24.905142
H   52.746532    3.622304   97.356361
H    9.993826   69.275406   19.998030
H   35.395470   59.786362   57.649918
H   39.631214   83.265076   39.547131
H   68.887238   68.012543    2.999725
H   70.751198    1.849511   38.158871
H   35.564693   25.782948   96.551735
H   67.484665    4.084867   57.101662
H   56.415440   29.318682   72.515739
H   61.372375   59.473801   12.994647
H   95.006187   80.908150   53.136959
H   43.293156   51.436157   88.169327
H   65.312088   57.895798   57.686848
H   77.247231   41.120056   11.442314
H    0.368496   53.431740   77.260162
H   78.360672   47.437416   28.381266
H   97.690262    9.067617   80.423187
H    5.204793   94.441795   69.464455
H   80.629387   65.621094   28.659004
H   50.224548   78.032547   58.448475
H   41.516350   81.129700   69.864510
H   67.614876   25.293530   57.412708
H   81.933128   97.263382   46.221855
H   97.825371   82.369804    7.453873
H   69.370964   59.723923   37.654835
H   63.148479   97.597481    2.510865
H   98.866829   78.418953   41.069046
H   23.124462   62.311283   26.193674
H   52.688545    6.038480   23.770460
H   21.173759   12.956779   53.514233
H   97.163391   13.921429   94.792694
H   17.369221   71.139870   22.610924
H    2.197416   42.137390   97.939056
H   92.085709   55.271236   77.239250
H   57.657009   40.802147    7.317736
H   21.085405   33.337093   51.257359
H    3.574755   18.814947   74.149750
H   66.211342   40.871391   49.340916
H   86.832397   35.202991   96.464706
H   19.568632   43.837337   54.456940
H   37.883369   29.446114   36.967789
H   75.378036   63.380291   76.983139
H   88.626755   65.752945   11.167849
H   26.336714   62.273193   43.827549
H   76.909042   94.204559   62.377151
H   91.840988   42.718319   28.242088
H   75.435608   30.121189   70.667419
H   87.287102   63.706871   80.709259
H    9.012117   41.408539   61.465248
H   24.085079   10.656515    1.234175
H   74.928406   73.670242   42.041245
H   58.908508   51.405308    3.067279
H   22.163248   43.383217   96.328911
H   96.734711   26.413191   73.889183
H   65.799629   13.158993   49.050392
H   99.603065   54.494793   91.826164
H   66.157669   65.575813   97.206047
H    0.981752   56.831234   47.633781
H   18.965368   44.301147    3.297558
H   51.699547   51.058056   68.963127
H   43.937565   94.053841   80.225845
