100
TIME:    2.267, STEP:  2267
H   64.014313   14.125787   97.070511
H   38.209557   27.657488   21.001577
H   18.722502   37.000610   96.724571
H   81.857117   39.250511   15.900787
H   74.865738   54.467564    4.237705
H   92.863899   98.752083    3.253956
H   34.157230   14.415625   67.735207
H   41.704567   84.726227    0.044857
H   97.900749   68.330566   57.388546
H   12.889593   48.934120   96.461662
H   89.384216   57.460148   21.380899
H   69.317245   37.323517   31.560961
H   99.059151   24.550911   99.808067
H   42.832741   98.088326   29.759808
H    8.074764   67.529663   41.799957
H   10.373100   13.449109   44.861099
H   41.804031   31.917336   79.758102
H   49.589424   84.456322   20.952686
H   80.573219   73.457977   82.796677
H   31.441612   57.669865   70.680550
H   29.749634   30.530392   95.713913
H   79.719849   47.093460   26.222260
H   55.476311   76.184853   67.488678
H    8.412697   63.870823   38.707161
H   48.502556    6.380829   53.288170
H   36.264187   60.057285   76.685570
H   66.593864   48.241505   44.952496
H   41.258942   62.255611   41.706974
H   60.464539   54.771828   50.009575
H   87.920677   34.731949   63.608547
H    5.279720   25.339785   30.024330
H    8.896950   89.878059   89.396538
H   30.041683    2.618231    2.026219
H   73.887215   65.965744   76.246185
H   24.420826   87.552216   62.771400
H   69.661301   62.570164   12.846761
H   97.234131   21.513899   87.096130
H   70.290291   17.461536   82.417168
H   49.383308   32.021179   24.622873
H   49.666958   99.953758   16.396627
H   80.316414   33.969875   95.754074
H   27.876160   13.601108    9.307207
H   30.767836   77.094467   65.219963
H   34.595360   50.766495    2.389602
H   60.009182   42.445866   50.104591
H   48.840137    6.156330   92.375191
H   59.441158   48.125214   47.217697
H   56.360485   18.724234    8.846992
H   31.296545   44.695957   54.044006
H   73.432610   65.253960   25.107845
H   43.371662   50.779488   77.319733
H   15.304781   53.379025   25.237392
H   55.906197   35.153564   71.206993
H   24.195210   70.221367   31.852034
H   60.285454   57.243137   19.642469
H   96.402756   10.149441   15.452774
H   39.969288   24.133934   71.597984
H   57.251312   62.797455   55.163284
H   69.069389   34.555660   37.444366
H    9.420933    2.036131   99.131721
H    2.704357   73.144722   37.642376
H   18.452354    6.842560   92.779190
H   28.001602   52.561089   78.033127
H   98.709717   54.126411   65.594841
H   22.302494   79.782928    6.682111
H   62.079842   29.573647   80.228081
H    5.682539   26.739420   76.512833
H   23.768745   47.189697   74.578308
H   69.890587   86.894173   18.049561
H   76.312073   62.168251   96.959473
H   50.045372   41.153313   34.957005
H   87.042603   76.287704   22.600428
H   59.179123    6.172535    3.618442
H   80.300621    5.918659   68.474007
H   71.471458   31.869371   73.251816
H   79.252510   52.866951   43.388988
H   72.784546   30.058115   31.142931
H   38.488110    2.486562   39.638355
H   70.222061   46.859837   42.971443
H   88.347328   85.488693   25.617012
H   55.245564   52.734814   15.482210
H   11.418261   59.032791   97.211891
H   61.236103   45.095978   45.820377
H    6.118576    6.151705   56.364441
H   41.945816    7.081205   27.992111
H   99.113159   92.325005   99.210472
H   18.562536   38.523560   31.642714
H   92.449387   23.792862   72.171669
H    2.728354   67.949257    9.652798
H   65.906174   16.003899    5.258610
H   16.797638   95.843536   81.336624
H   46.024273   66.003227   76.717995
H   30.738529   95.560715   94.296188
H   66.342842   50.743763   79.670219
H   17.396057   46.666092   68.180016
H   81.166473    6.210447   50.355515
H   82.658737   97.779167    6.812108
H   15.188787   35.539825   19.762775
H    0.718958   46.622440   55.153748
H   80.029678   20.473320   79.341095
