100
TIME:    6.476, STEP:  6476
H   79.377029   28.140047   93.217056
H   21.624001   55.790173   86.438148
H   91.083130   39.812904   47.325291
H   82.563583   65.839142   85.191406
H   37.166107   91.837387   90.114960
H   27.594158   94.192162   20.085896
H   13.563561   98.627235   96.884712
H   10.885468   48.857601   13.588471
H   94.435432   63.652390   92.445442
H   97.876808    9.369879   61.279331
H   97.873291   26.818258   15.948750
H    8.668587   48.298954   31.959743
H   30.819809   69.973930   81.533623
H   34.427559   85.115028   50.067303
H   59.263496   91.564598   39.471462
H   41.138489   45.314430   95.476074
H    3.345645   10.308669   62.924171
H   39.553455   79.716980   75.032753
H   46.130947   50.030800    4.544068
H   18.043526   68.284706   57.248802
H   79.981705   11.510563   81.472496
H   83.240768   52.680969   67.787064
H   99.278267   41.953331   47.065018
H   17.343838   14.300020   26.109034
H   97.966133   72.581406   84.366615
H   17.025061   35.212845   81.442940
H    3.645784   73.278763   28.461119
H   86.115646   58.717491   80.835678
H   51.985405   36.645061   51.047760
H   49.311329   30.559013   98.212479
H   70.928413    2.771533   97.018501
H   74.655884   73.584808   99.748329
H   26.517483   94.667809   81.206177
H   51.728493   80.236008   98.928558
H   19.786560   69.345985   19.055597
H   35.584896   92.656532   99.065804
H    0.932094   67.370239   18.748632
H   96.328499   40.439953   79.434517
H   71.719727   40.314568   16.739805
H   53.226063    5.921440   47.553074
H   92.663345   78.389473   94.917458
H   54.451996   66.998779   10.571652
H   67.019745    2.335447   69.241417
H   65.827774   21.342184   13.924989
H   94.910912   76.381088   10.278884
H   94.532005   86.436630    9.470678
H   92.328415   77.024673   87.628075
H   56.585270   62.070679   69.276108
H   54.327728   96.108315   86.143936
H   61.704693   29.301619   30.729616
H   43.056919   44.427765   21.693733
H   19.856968   62.815926   48.927162
H   43.204609   59.558777   26.752310
H   26.723061    1.538136   17.584270
H   25.166443   26.130344   55.431187
H    1.661609    5.721600   72.168472
H    6.803054    2.684040   71.908913
H   43.839020   65.309242   46.749130
H    1.026077   12.396781   14.320599
H   31.669617   25.554867   79.417747
H   68.211662   77.406876    9.476727
H   69.072029   67.664383    2.334131
H   13.715662   65.372475   89.391693
H   87.735092   77.040619   51.318363
H   89.366241   43.617054   98.650261
H    3.516529   20.331779   29.095503
H   67.986862   72.252655   79.723160
H   33.024269   87.906227   75.792847
H   79.665565   84.462280   54.070324
H   61.584610   73.867119   88.096527
H   16.389961   54.774246   84.465218
H   39.991253   36.599274   30.763851
H   84.743576   97.978241   95.701721
H   87.647453   39.553204   18.371565
H   74.403923   37.873989   92.322403
H   78.755470   22.623219   60.175606
H   54.941982   65.287498    5.594401
H   36.234585   27.270121   72.086037
H   72.059532   34.496670   89.933739
H   81.936142   56.241432   63.007988
H   37.597923   96.278854   67.044403
H   27.251154   86.468643   45.222057
H   27.496414   15.419658   46.685394
H   95.688377   66.324486   71.933891
H   37.002251   43.808182   19.976685
H    2.242766   46.929192   91.496185
H   99.672112   32.494835   32.344124
H   60.180901   86.857910   28.431778
H   90.077744   33.598351   75.225471
H   93.773026   42.836575   55.716705
H   89.047234   23.117615   70.223068
H   57.457317   82.536636   56.916985
H    0.577688   21.831066   19.803598
H   73.146858    6.064484   63.465729
H   44.626564   69.649765   64.897736
H   28.812668   40.000885   32.955276
H   48.567711   39.323914   64.748657
H   25.777147    6.892051   48.874916
H    0.211536   64.767143    2.603432
H   41.459911   12.450665   73.887413
