100
TIME:    1.657, STEP:  1657
H    5.266541   70.065994   97.628983
H   55.177788   94.584572   82.523338
H    8.237196   93.115715    3.884175
H   81.754730   64.381737   49.338161
H   80.329453    5.573369   20.776276
H    2.321361   99.412941   42.844128
H   66.125389   73.227013   20.032417
H   89.649361   31.953480   56.054581
H   12.895775   26.979706   95.784279
H   29.557646   40.175423   72.577690
H   46.124924   32.915318   80.138474
H   92.596207    6.747547   74.982109
H   37.860634   61.456581   60.435814
H   73.036751   99.968513   83.338539
H    0.654514   22.017200   71.123245
H   34.900528   66.803825   95.495865
H   90.847153   91.577042   24.221102
H   36.553764   14.120913   42.101364
H   71.069893   47.867729   50.658566
H   47.874641   70.624130   29.148874
H   65.947906   91.257446   12.270855
H   21.231937   46.286987   78.164894
H   63.620689   81.145943   84.940918
H   65.088264   56.554844   84.011124
H   70.320183   54.758438   48.787819
H   39.061199   78.234528   33.862045
H   19.193455   73.599014   32.847622
H   92.729355   33.782864   21.543550
H   47.200836   99.428314   78.845329
H   64.530022   49.829300   15.115397
H   81.283424   70.636429   78.291718
H   70.381195    6.732970   45.867271
H   87.074539   47.247963   47.072601
H   48.113747   21.868446    1.945077
H   39.584496   33.663765   25.628380
H   16.624428   14.649481   14.943357
H   38.726929   43.853859   39.030338
H   95.505287   28.626316   39.370975
H   76.228836   45.135933   83.311478
H    7.122915   57.061161   68.404495
H   22.003868   13.039042   81.382736
H   82.699463   86.224785   80.648804
H   25.513548   73.436478   21.160500
H   73.548759   40.541809   42.746578
H   12.923431   66.511826   97.903641
H   56.709934   94.521523   89.899300
H   53.576466   15.125796   41.782173
H   56.327908   12.443754   71.103706
H   13.467336   95.217247   78.376663
H   60.642384   55.969997   67.770836
H   43.418201    9.670694   70.888000
H   85.660439    9.981493   65.284317
H   43.252159   31.616577    6.633175
H   38.319889   80.171471    4.936026
H    8.845592    3.766004   14.466953
H   95.639511   10.790520   36.218613
H    1.299336   41.735100   13.582035
H    2.673618   20.404392   70.874954
H   20.961220    8.780421   84.274857
H   49.672970   55.151356   16.480553
H   64.225571    1.514894   85.202965
H   40.100983   12.521519   20.379929
H   86.626160   94.157921   19.881691
H   56.823540   50.808159   82.153526
H   98.090462   28.501926   49.874805
H   99.553291   59.898659   44.160122
H   54.624527    5.650640   47.062756
H   65.905434   12.302522   45.416782
H   39.487358   30.724869   56.309525
H   63.951248   31.484926   98.243958
H   69.415031   82.658257   42.274326
H   37.339947   96.532303   77.940056
H   98.951614   36.343967   19.260296
H   93.722557   44.521713    4.728157
H   42.062088   31.001413   27.010105
H   64.834633   13.770365   84.434319
H   17.399469   82.929672   20.352793
H    9.829204   42.373749    5.948862
H   40.977715   48.648289   36.166023
H   18.263260   18.709787   78.169197
H   43.308231   46.424084   79.023842
H   65.650635   55.049026   48.220413
H   22.641056   34.913177   87.721008
H   64.158150   53.953228   12.081306
H   71.647202   45.238510   87.124954
H   13.153446   69.920982   56.850395
H   77.821999   82.875519    2.555203
H   82.629593   72.631210   78.519524
H   90.069283    1.913561   14.642975
H   19.837105   41.102547   83.451042
H   91.833778   62.903172   68.454544
H    0.888192   20.128023   65.092476
H   91.600777   77.280075   47.105331
H    7.382545   13.741509   38.541664
H   27.944191    1.304818   54.162376
H   30.783020   30.297338   81.862625
H   31.077118   62.772305   41.893723
H   12.949082   30.346039   29.524395
H   29.776386   43.992970    6.252593
H   42.146683   36.141392   38.093330
