100
TIME:    3.553, STEP:  3553
H   77.047516   96.193207   95.893143
H    2.436448   97.382111    2.122184
H   40.827591   29.520584   81.634636
H   82.072968   86.265984   45.411533
H   63.347153   57.546124   69.368286
H   72.927132   97.358864   30.611246
H   66.755989    1.252201   68.302162
H   40.627502   95.982162   81.969460
H   66.288414   44.686981   76.438988
H   77.746956   67.399178   46.822731
H   69.763626    9.205191   97.506828
H   20.231865    1.784363   40.022194
H   17.256409   46.746017   71.989067
H   79.157356   94.124519   27.624897
H   23.719044   52.658890   79.983528
H   58.666183    0.970592   38.111671
H   38.396095   16.974697   96.831955
H   77.066490   21.918449   76.367371
H    0.607921   27.405870   50.547009
H   96.796654   30.364439   58.237389
H   53.436661    2.504272   60.805847
H    3.009918   48.800644   16.707474
H   38.306358   65.725899   30.695747
H   88.929283   79.294342   43.197193
H    2.509153    4.387848   62.779518
H   30.366175   21.742449   56.147514
H   55.700405   94.782486   70.469460
H   32.750317   22.281723   84.215111
H   88.427032   71.447983   89.220589
H   37.230347    2.902753   65.841888
H   55.889683   40.659847   28.276894
H   90.095894   54.343834   70.345055
H   20.625658    8.528225   17.879255
H   28.224590   48.111458   22.068527
H   92.452515   90.340446   41.080719
H   81.477638   63.593189    8.422540
H   20.578274   74.416977   88.427910
H   17.140770   93.926903   73.166039
H   95.098297    4.004721    0.000556
H   28.540878   79.563629   17.576517
H   92.429840   78.094879   26.052839
H   12.297783   71.320236   69.724243
H   41.844906   84.806229   58.109592
H   52.475723   72.318359   28.127771
H   48.458790   91.708771   60.150692
H   32.249058   30.684834   97.594856
H   69.492477   18.062035   59.570251
H   56.429165   31.964720   88.417458
H   68.885300   38.189812    2.742368
H    0.394476   84.817894   35.162724
H   43.273548   26.624557   90.879089
H   77.802094   34.047142   40.814556
H   82.576561   42.610229   96.516273
H   94.415764   49.237686   88.601166
H   57.898239   69.961121   30.566526
H   98.011826    8.797033   71.674301
H   21.497026   87.026222   93.907219
H   61.492424   41.350876   22.038517
H   70.493492   88.891205   38.717403
H   24.557785    0.882422   62.554817
H   83.826393   13.341887   37.375759
H   72.811699   94.871262   34.592621
H   15.273046   64.832817   89.830589
H   87.017754   61.121941   30.676510
H   73.348488   77.072304   26.444815
H   83.078835   65.642677   56.264893
H    2.504245   71.197052   38.601788
H   34.935875   20.737242   36.056545
H   33.983368   94.490417   37.394871
H    2.370657   26.847780   94.251526
H    9.207989   53.653862   19.527637
H   81.005722   33.608109   16.755352
H   75.329102   42.559666   70.651115
H   51.998272   24.538139   92.047356
H   33.476276   33.703754   70.739418
H    9.650813   35.286461   56.856709
H   89.544319   18.595852   53.885944
H   98.906723   18.398161   10.657848
H   31.891973   43.082447   57.325523
H   25.279640   15.449268   14.826977
H   80.405411   66.039078   92.343689
H    7.909438   67.431351   89.677490
H   42.597248   66.563324   68.305603
H   94.591125   16.196751   38.904961
H   79.327454   26.642094    3.328990
H   69.521973   39.562027   88.514206
H    4.451574   45.020882   92.963974
H   13.148329   20.832382   58.792740
H   29.419312   96.347328   99.131844
H   52.206165   63.097687   51.227379
H   69.425995   65.281746    8.494668
H   41.180099   62.710373    1.226713
H   13.208547   34.124840   93.763390
H   90.638466   28.747971   66.377846
H   95.159996   31.473576   97.731956
H   87.384796   55.426949   83.931740
H   80.582092   71.580025   32.853615
H   19.908491   46.489349   99.185051
H   39.456596   52.165882   47.436455
H   59.900066   87.457863   55.468681
