100
TIME:    7.314, STEP:  7314
H   22.706167   51.291908   92.449844
H   98.482559    1.197633   39.276379
H    5.491791    0.102970   37.485798
H   82.704239   31.314541   39.257542
H   29.659220   59.006695   67.392700
H   14.596482   93.284294    3.075710
H   69.642014   55.215008   62.417477
H   45.020317   21.356197   36.646782
H   73.835793   83.082047   39.696674
H   74.988319   21.403200   94.090431
H   19.924561   60.537220   35.228195
H   76.686935   90.303802   72.310646
H   77.360176   19.278843   98.261742
H   92.936058   82.532082   13.838161
H   69.441841   16.710289   99.173370
H    7.442781   72.019775   25.915247
H   35.958809   65.733704   39.210629
H   57.474247   38.939667   45.984962
H   59.179943   85.184433   48.690784
H   95.467026   50.490246   14.303690
H   30.253586   28.085472   58.726147
H   63.580643   53.793427   96.423645
H   88.089760   35.137932   23.088457
H   39.481865   24.324923   63.873688
H   67.993721    6.122498   90.555458
H   13.121181   10.485367    2.602269
H   31.384172   38.442650   45.090435
H   15.407939   97.832512    8.533504
H   70.206688   12.675476   11.435713
H   81.444717    9.818241   64.830589
H    3.906270   77.915741   30.718605
H   27.567562   50.431545   22.170418
H   85.545418   33.354790   56.699837
H   87.135323    3.438313   63.624023
H   98.930244    5.897587   70.042465
H    8.431398   58.292755   96.431709
H   81.306473   36.681763   84.779999
H   61.689308   25.102108   38.569710
H   36.346256   22.056665   35.531021
H   74.295784   27.470869   13.484403
H   35.390976    7.145703   14.659256
H   83.829796   70.285004   53.351711
H   74.231537    7.362415   29.771717
H   12.320808   35.407738   95.859978
H   22.220829   43.318256   81.988594
H   83.714317    2.419811   12.875181
H   98.875290   22.598530   95.671013
H   56.634029   70.701813   21.126385
H   78.824837   26.704647   52.716911
H   79.298584   42.057194   72.138191
H   42.999378   63.524063   30.526260
H   60.589062   85.053970   93.918060
H   60.588352   64.417786   78.083717
H    7.318993   87.868423   54.562637
H   58.443466   99.568352   62.559864
H    2.705337    4.840105   43.640976
H   59.926365   78.503944   51.609749
H   81.440353   86.170113   25.163889
H   67.115044   47.809841   49.989601
H   76.369621   89.966125   55.583031
H   21.073355   38.436707   44.138496
H   39.329781   59.864395   64.420746
H   70.609047    8.188500   31.927521
H   45.279346   81.605530   28.564137
H   22.627243   76.687866   76.689812
H   52.036804   78.672783   78.644608
H    0.752106    1.227520   20.182276
H   75.137688   35.833427   15.854095
H   21.430252   24.248932    1.510339
H   78.568306   16.008646   86.330719
H   89.779289   97.757172   74.414742
H   70.976585    8.745996   92.159798
H   30.105188   56.531010   74.219788
H   69.196007   86.516235   68.580566
H   14.794179   39.084660   55.854069
H   98.562325   76.332420    3.790611
H   31.050457   92.754829   20.456064
H   75.605347   72.476723   18.363787
H   12.247071   32.035198   99.280937
H   40.839157   10.591014   90.813637
H   53.998512    4.949044   17.130676
H   90.133461   91.903061   75.114418
H   80.502373   29.433996   26.491425
H   53.340206   38.034298   95.396812
H   96.198654   91.386925   38.742027
H   82.959518   77.710724   49.689621
H   55.640308   71.565086   72.303078
H   73.658257   19.799955   19.743103
H    7.468909   86.940758   68.371712
H   19.682634    8.356792   85.674561
H   23.341755   68.365181   87.920090
H   19.460833   45.561783   72.884941
H   54.294956   46.976437   84.607430
H   54.135612   56.904747   19.970545
H   30.138634   94.585495   84.154755
H   98.027969    6.910489   89.671150
H   82.051598   87.415314   16.553936
H   24.159609   48.355373   32.053795
H   60.290947   68.385826   32.413219
H   93.512474   90.945297   93.159119
