100
TIME:    6.800, STEP:  6800
H   57.465897   98.428444   92.920425
H   12.676872   73.346931    6.866612
H   96.654846   63.123146   43.521000
H   82.617966   52.490753   67.433105
H   34.264069   17.807325   81.329742
H   22.568737   93.841148   52.173481
H   96.582779   20.505733   22.222010
H   85.419701   76.887878   83.840492
H   86.470894   32.501205   72.052071
H   89.027321   14.022657   73.965248
H   67.735596   39.855183   84.738884
H   96.302322   64.539490    8.897930
H   10.144638   50.379742   49.339287
H   18.385822   84.116371   74.723671
H   63.198799   62.623314   23.890926
H   28.111080   16.976295   68.581543
H   77.291512   31.737942   92.419167
H   46.482258   63.951050   63.800377
H   51.176144   63.623909   21.612766
H    9.315163   61.403805   79.308250
H   60.755081   79.256073   72.677391
H   14.302963   53.111084   40.195450
H   94.952400   39.318260   37.795303
H   87.240013   18.175997    2.045809
H   86.377754   46.886581   86.759438
H   15.544674   25.636116   50.973152
H   75.707924   59.810951   34.890591
H   58.776642   73.840721   91.544052
H   59.030388   66.041176   35.731720
H   61.735218   22.540092   23.968853
H   83.678596   31.825058   71.384651
H   95.113525   64.631500   69.754005
H   49.340458   70.962059   10.394658
H   65.418007   50.543259   85.278595
H   11.722816   44.814613   38.769188
H   63.749996   18.033867   98.047371
H   32.007812   55.505005   44.278660
H   82.935616   34.509808    2.299597
H   58.043964   33.254753   85.342026
H   22.709785   75.590576   73.045151
H   70.519852   89.508186    2.550587
H   27.147125   68.269348   27.112530
H   69.808075    4.279129   92.645592
H   45.140026   26.780416   45.603355
H   66.805138   63.596378   38.004948
H   90.349510   92.616440   10.786978
H   94.859665   94.644547   90.737755
H   56.602657   65.407776   89.323410
H   63.797668   69.273109   73.220718
H   68.506592   34.233784    8.075454
H   43.034672   13.147295   25.108696
H   35.606548   32.749916   27.658730
H   49.925770   61.437439    7.934790
H   19.220772   96.252609   31.880642
H   99.368332   54.525078   58.187382
H    2.065151    5.380783   61.138748
H   27.342546   93.335091    2.723960
H   19.713675   34.711769   38.403915
H   26.578712   26.088604   89.447823
H   10.289782   50.459499   70.202415
H   88.649529   62.338303   84.214371
H   57.572639   64.648636   87.675293
H   35.712284   43.263588   67.174042
H    9.983070   78.805573   42.520786
H    2.225454   17.739166   28.823740
H   83.612793    4.225176   48.252914
H   41.992111   83.455414   95.365494
H   10.643322    6.436121   91.281921
H   95.812172   61.181702   33.748638
H   68.149132   90.162041   87.414276
H    6.101116   32.729630   80.579353
H   13.279778   25.844418   54.488564
H   63.618515   81.951385   87.396057
H   80.513481   19.047813   99.121277
H   90.026482   38.336239   16.884190
H   86.413490   43.389294   38.375710
H   84.367767   37.243633   11.340517
H   51.456692    6.084469   89.977821
H   87.598045   33.544979   93.547691
H   66.046616   38.591896   35.095024
H   43.938408   99.630783   86.409454
H   51.562767   88.569778   18.116779
H   47.991135   20.838049   77.541336
H   17.979183   94.049583   42.341831
H   21.225721   23.540878   88.568718
H   94.786789   58.831505   13.995994
H   21.311419    8.937215   47.793648
H   65.391716   60.932079   25.072433
H   96.801376   15.559362   72.575569
H   65.128372   29.505489   67.298370
H    2.306669   40.612045   77.065353
H   81.430038    6.904607   63.089378
H   21.346439   31.553143   44.859016
H    4.460966   25.720911   85.312592
H   39.025185   40.627388   72.343170
H   55.573715   27.206671   16.220352
H   22.850256   57.917725   46.115295
H   25.151751   22.923691   42.371284
H   84.776848   66.166252   75.466423
H   61.583843    4.136493   42.675213
