100
TIME:    9.092, STEP:  9092
H    2.467597   88.242012   90.822037
H   49.377029   97.545151   51.385426
H   36.054020   28.018391   16.614166
H   83.002670   58.060295   41.799347
H   13.727053    1.521136   19.184269
H   87.026855   91.358055   79.157532
H   76.457451   75.274010    1.459409
H    5.273026   75.174911   73.397102
H   30.129158   12.133382   27.777803
H   26.424612   46.932652   63.709297
H   54.539337   32.077240   63.960991
H    8.823456   79.425667   45.750221
H   63.982986   11.662025   21.569828
H    4.900456   77.051796   49.146038
H   91.037422   57.890572   13.667198
H   35.954315   16.509544   78.325256
H   92.982368   83.335777    1.068980
H   95.492020   52.422173   84.352615
H   86.877441   59.775845   42.362873
H   47.559879   12.735212   35.358208
H   24.744545   51.080582   10.472046
H   34.039242   56.153748   45.010483
H   64.350899   20.682886   72.217453
H   74.280609   45.594940   31.822828
H    4.403029   65.120468    3.684710
H    4.736549   58.071335   35.284138
H   78.066154   64.535477   80.366867
H   65.384094   80.823532   67.307884
H    8.867627   73.989433   27.387726
H   49.620293   65.812424    6.176854
H   73.884377   37.353054   90.048996
H   39.831654    1.311667   57.572090
H   10.784580    3.268840   16.876120
H   62.260818   40.495087   88.720497
H   54.681007   71.278023   78.217896
H   62.989460   97.556396   90.842903
H   51.839622   71.566170   24.879232
H   88.202934   92.564186   64.036995
H   61.297840   83.318687   63.230026
H    6.829035   61.021614   53.374962
H   13.877829   68.148743   56.548061
H   33.989746   77.257446   44.123203
H   89.532928   18.028591   58.196407
H   98.790932   65.258339   69.700874
H   67.991272   73.178459   34.139019
H   60.764145   36.326794   20.098577
H   12.774526   19.292345   12.743423
H   56.742550   89.014648   31.138584
H   30.798370   79.450539   81.791016
H   16.625044   69.122063   47.820614
H   42.877293   91.869225   49.272644
H   47.000561   20.068535   77.202766
H   97.459450   74.727234   74.824356
H   66.137878   58.863914   33.020210
H   16.876297   55.384964   77.672638
H    4.919834    2.969822   83.113647
H   72.644302   27.200874   20.712439
H   49.046570   18.259981   79.365623
H    7.345345   22.938334   13.492239
H   59.039341   26.629406    5.012474
H   33.231571   55.749767    5.513130
H   76.225060   43.315018   83.971184
H   91.316467   86.860985   10.004730
H   67.372437   91.290985   80.292465
H   93.199753   34.680820   42.267338
H   42.812874   90.283440   83.774361
H   58.100418   62.693584    6.023327
H   52.319168   37.519173    0.852783
H   10.045036   96.493210   89.998047
H   14.678786    5.313126   82.559631
H   33.314121   76.779915   53.090462
H   24.563398   49.710350   22.486095
H   14.176537   68.581535   28.630520
H   30.059002   73.986366   62.937782
H    0.442594   41.702717   90.663284
H   40.598946   90.284782   84.152847
H   92.530106   38.864971   51.992355
H   59.131519   56.223320   16.566391
H   97.508980   26.812649   19.123438
H   53.644920   13.734755   37.637230
H   88.806465   23.343271   23.399864
H   23.552746    3.436897   26.367563
H   92.962822   59.168613   95.818596
H   75.663445   90.181129   33.003559
H    9.626419   80.160751   66.386230
H   42.040005   43.018555   73.159241
H   74.388969   42.289696   57.084846
H    2.253238   77.524330    1.308100
H   44.370365   87.944603   53.829964
H   62.484898   35.207077   49.232704
H   96.104759   64.370193   25.468529
H   51.014828   79.284882    6.768006
H   68.268250    0.318670   22.102900
H   25.972090   64.774033   39.857128
H   99.393967   35.323833   25.009897
H   44.883530   36.698181   97.835083
H   40.921837   89.450127   14.298801
H   20.727648   36.332699   96.356651
H   75.591179   76.063652   83.487206
H    3.951466   45.317982   21.878513
