100
TIME:    3.104, STEP:  3104
H    7.411708   37.368645   96.304214
H   14.926844   73.039810   73.799393
H   33.109718   97.218735   86.903206
H   81.997604    4.764650   70.023621
H   67.368805   21.556789   81.542862
H   79.887947   97.845299   86.145500
H   90.289848   70.935539   33.189781
H   75.918015   57.136486   23.194706
H   77.325691   87.856369    4.700596
H   90.017448   60.952202   29.239138
H   11.528503   91.138870   40.756451
H   37.370132   79.278244   71.983025
H   45.816505   73.911011   16.616871
H    1.389439   95.508461   93.455238
H   18.256927   92.765793    1.564960
H   76.719086   40.241974   75.382179
H   74.501900   87.276276   55.957714
H   67.474815   43.753212   91.933289
H   93.613029    8.568507   26.893251
H    8.893341   39.898174   27.667353
H   80.080963   47.204857   72.993225
H   59.963852   48.204590   54.944000
H   44.301155   69.377586   43.541916
H   30.646301   73.909302   76.544106
H   18.567345   39.996941   59.463539
H   32.426319   35.120724   98.233772
H   94.417252   13.446849   61.561970
H   70.634605    1.323941   69.375420
H   78.664078   30.710825   10.444880
H   20.014484   14.016250   30.147243
H   38.217022    0.397774   63.800346
H   61.745644   66.748680   11.911201
H   88.998993   41.378487   77.429787
H    9.252219   89.259743   40.983780
H    3.613476   24.281677   13.741020
H   42.435299   28.319983    9.969956
H   77.512550   90.859848   53.048336
H   35.697235    2.142300   41.481693
H   14.050748   13.786516   43.511307
H   70.830582   21.596922   82.250893
H   23.115164   62.686832   15.474635
H   52.651329   51.168686   48.629410
H   37.977406   82.113708   25.679119
H   81.147980   64.795746   84.226402
H   87.406471    9.424559   21.728724
H   38.041744   22.120838   95.772438
H   65.984665   93.643219   55.257423
H   56.405186   27.341875   60.635857
H   55.760559   75.375725   20.653727
H   90.980797   77.987251   66.565460
H   43.307804   69.972290   86.144913
H   55.981037   75.711731   70.291100
H   73.265785   40.006775   22.593437
H    4.814297   56.565041   68.787506
H   93.647781   30.610756   26.748697
H   97.450027    9.269766   86.959320
H   93.032417   99.981834   51.203712
H   94.926262   83.752930   33.604813
H   35.082458   69.920242   73.188286
H   54.185783   66.372864   75.325447
H   55.503548   34.221752   72.382767
H   88.747581   99.050491   54.909843
H   84.791191   95.471367   20.619888
H   56.186501   58.679489   42.868214
H   55.526897   12.932300   84.630882
H   10.661520   87.963875   29.716656
H   38.529182   55.674076   16.923410
H   65.951241   95.057678   14.591750
H   11.604103   26.752678   65.556526
H   93.272766    4.264151   95.196991
H   23.466633   84.203346   24.914391
H   18.028452   48.509460   83.882416
H    4.604495   64.767937   82.161125
H   61.883228   52.953026   18.728600
H   11.828490   33.063168   36.702671
H   99.035728    6.509505   87.069672
H   48.778423   57.513481   45.945408
H   77.811890   47.758167   85.862167
H   10.361865   44.401302   52.313873
H   47.299385   39.903454   53.508804
H   71.622177   61.393963   65.507553
H   74.221481   64.499039   27.223269
H   14.188820   59.068115   25.540440
H   63.699116   77.774872   79.914124
H    1.189680   54.728573   46.854393
H   79.853577   23.068699   57.334408
H   74.463860   77.666832   71.553986
H    5.922029   56.780609   63.461830
H   20.099972   21.346395    2.805015
H   91.903015   81.568680   35.178452
H   51.051086   41.038609   99.012527
H    7.956254   28.944254   92.669731
H   84.427094   20.651960   59.041527
H   47.241665    1.512670   36.105568
H    2.922915   71.692871   87.414055
H   50.299271   73.157845    7.123299
H   16.221600   45.812679   58.675774
H   18.260778   42.666382    6.369701
H   60.846031   50.230419   85.044182
H   32.012272   98.981575   98.720963
