100
TIME:    1.114, STEP:  1114
H   41.986732   19.861732   98.126114
H   70.282295   65.146111   48.270992
H   98.904510   54.049480   10.259682
H   81.663589   86.752647   79.101799
H   85.193054   62.049538   35.499382
H   10.741821    0.001221   89.068718
H   94.586159   36.560474   77.569023
H   32.328094   84.977097    5.909603
H   26.243752   79.186783   29.964357
H   44.396675   32.378746   51.314568
H   96.633469   11.066628   32.443657
H   13.320919   79.529854   13.633425
H   72.399841   94.308678   14.406657
H   99.923271    1.642577   42.016438
H   94.050789   70.517487   97.222641
H   56.732880   14.297672   40.568832
H   34.502586   55.667587   74.782448
H   24.949890   40.526947   60.926071
H   62.611053   25.086687   22.052797
H   62.502731   82.157578   92.178978
H   98.170303   45.315613   27.008728
H   69.165398   45.570290   24.400021
H   70.870522   85.562126    0.476309
H   15.538895   50.042423   24.338928
H   89.741447   97.825691   44.781769
H   41.550999   94.416153   84.757553
H   66.018341   96.168777   22.072302
H   38.544899    8.437140    3.595160
H   35.393967   50.162601    4.513594
H   43.708508   63.268417   71.948479
H   59.923344   21.941984   21.259483
H   36.095707   21.734505   96.135536
H   48.826923   86.977043   98.154869
H   25.171135   71.631294   24.819857
H   53.081612   74.710243   92.564056
H   69.412811   71.994827   16.811216
H   86.646019   63.739113   96.244270
H   17.948181   38.564800    1.054266
H    0.638061   56.727379   35.355400
H   58.266312    7.893894   25.680929
H   59.110580   94.406563   68.589890
H   31.501213   61.856697   55.137684
H   20.836370   70.180267   81.938271
H    8.223299   31.440290   89.655037
H   60.023323   87.938187   51.437309
H   63.715343   84.164619   87.695351
H   47.842884   85.834732   37.142281
H   56.298908    6.853097   37.505917
H   97.595573   40.187424    0.035022
H   49.253933   47.705189    5.751091
H   43.459629   62.094078   65.162704
H   59.271049   60.368992    0.928742
H   31.987993   28.468079   38.170349
H   50.893169   89.028694   80.974686
H   52.075134   56.164799    9.859167
H   94.960098   11.361185   54.703613
H   66.873108   57.403023   61.938118
H   43.107605   71.684074   84.860916
H   78.135353   85.837372   25.960617
H   85.506195   13.413038   31.924767
H   29.973093   26.765617   27.539673
H   59.373108   17.576401   44.950645
H   49.795418   31.187553   57.133400
H   19.535238   47.854370   96.893471
H   76.539818   71.871574   99.305489
H   32.910408   86.892891   12.053852
H   98.189804   86.876434   20.846481
H    3.414088   81.247665   19.458242
H   12.422836   69.741394   90.363960
H   52.952217    4.173397   99.387360
H   86.657204   19.604506   48.786747
H   82.112442   14.554153   38.183426
H   34.357437   63.201488   33.184116
H    5.671824   78.884125   37.000267
H   15.882710   30.228788   85.846367
H   51.996487   78.970238   20.971920
H   68.099815   29.992701   10.745895
H   84.318069   77.879738   75.962875
H   14.948748   50.239109   30.109955
H   44.892929   48.284027   24.948975
H   32.682049   40.806499   46.569454
H   24.907112   51.502823   93.625076
H   88.283073   25.850222   36.002781
H   26.802893    7.488015   61.678444
H   98.086304   79.203156   39.762581
H   25.652157   49.974819   19.142982
H   41.556267   22.356056   76.662872
H   73.888367   16.104954   84.161964
H   78.800972   32.145836   19.085770
H   67.845108   63.444458   64.038063
H   69.612007   33.584850   56.987377
H   60.711674   79.289696   54.747566
H   56.760155   61.008072    5.096675
H   54.900841   80.805595    1.930469
H   37.332584   49.944908   41.684380
H   85.933395   51.740105    9.909451
H   74.178360   31.610456   73.121857
H   10.955379   25.722717   38.212357
H   55.643608   41.652309   51.735989
H    8.424606   50.090069   90.391548
