100
TIME:    1.479, STEP:  1479
H   17.303724   86.389542   97.791946
H   60.129173   84.934395   71.295128
H    5.177393   80.309471    5.973847
H   81.724854   71.715111   59.095623
H   81.923782   91.305901   25.602455
H    5.081680   99.605782   25.215773
H   75.455070   61.208111    6.112564
H    3.639816   16.554752   72.397804
H   17.271355   44.093628    6.988677
H   34.421776   37.619606   65.608269
H   62.682053   25.753056   97.284988
H   99.389084   97.825523   87.652550
H   49.182549   72.225777   78.127983
H   81.850380    0.517286   69.793526
H   98.489647   37.916111   79.678848
H   42.057358   82.372307   10.271113
H    5.158122   79.805618    8.015191
H   32.749916   22.777084   48.272263
H   68.296791   40.399910   41.281353
H   52.669853   74.404892   17.029795
H   76.510681    8.977684   17.102055
H    4.163953   46.052048   93.320534
H   65.997246   82.593605   90.033539
H   81.626381   54.420017   97.230209
H   76.686638   68.875648   47.474602
H   39.877377   83.539001   50.545471
H   34.542725   80.997574   29.315382
H    7.748578   25.474422   15.659877
H   43.330444   83.278595   87.259697
H   57.704556   54.234756    0.965315
H   74.281410   54.674118   92.377228
H   59.142124   11.650701   62.345634
H   74.537186   60.271492   31.036955
H   40.592964   38.181129    9.443678
H   44.008965   47.119148   14.789925
H    1.147628    0.666433   15.555150
H   21.654694   50.372414   25.004583
H    2.862698   31.884235   26.810535
H   84.230362   48.935707    0.371103
H   23.888502   73.724785   54.399532
H   34.167763    6.931322   77.189133
H   98.697083   78.236839   72.286041
H   23.980330   72.369064    8.303533
H   84.915489   37.558212   25.343134
H   28.363579   73.535568   82.671951
H   59.006367   91.126442   89.176826
H   51.696949    5.523447   40.261177
H   56.318401   10.611090   60.090069
H    8.264714    9.959190   85.476456
H   56.909153   53.260723   80.221275
H   43.431782   26.855913   69.011200
H   77.009773   26.498560   76.968826
H   39.559669   30.584473   16.971195
H   42.441517   83.074944   97.081558
H   23.016487   88.162018   12.956482
H   95.416794   10.977589   42.278152
H   90.014206   46.871178   96.652550
H   15.927828   37.214699   75.459671
H    6.923240    1.259268   97.939377
H   61.418591   41.469181   21.543297
H   52.997356    9.792439   99.082054
H   46.418549   14.178658   28.434418
H   74.553253    6.296277   32.093117
H   44.599892   49.839882   86.985405
H   91.025978   42.718998   33.297306
H   10.487942   68.747597   33.635372
H   68.905594   99.496826   38.469128
H   78.201057    2.122116   36.907352
H   30.615334   43.514816   67.473488
H   60.345673   22.532099   98.618774
H   75.067162   94.769188   44.409153
H   52.016201    2.439886   64.908379
H   10.557888   45.148090   23.824642
H   97.639122   55.786591   15.307228
H   33.480682   30.748140   13.516018
H   60.626362    2.362131   96.412163
H    1.238148   98.356918   17.204195
H    1.466438   54.013443   96.118744
H   32.445198   49.169773   34.180580
H   26.992691   28.404100   93.504097
H   39.824879   44.582592   68.385017
H   52.294559   53.886551   63.104446
H   11.378814   31.941816   70.767334
H   51.912792   38.721539   28.339668
H   80.314163   56.373016    4.380043
H   17.250629   63.383289   44.489586
H   65.933784   95.817566   94.067429
H   79.764145   86.882401   80.369164
H   86.375435   11.824122   16.099148
H   35.574814   48.426414   77.087303
H   84.549294   53.292377   64.695511
H   87.717979    6.741220   61.701035
H   80.179726   71.945724   33.334885
H   90.178505    2.944403   26.540424
H   31.022171   17.249405   50.071983
H   16.080963   37.326347   91.056503
H   45.206039   52.557186   52.130569
H   12.295529   28.830475   32.372780
H   38.255760   43.225681   21.162449
H   31.092300   40.713886   55.237129
