100
TIME:    8.078, STEP:  8078
H   71.040031   81.230125   91.750381
H   77.382095   42.599606   87.449051
H   18.624346   55.067429   28.516319
H   82.832474   99.835808   97.379341
H   22.813227   20.244572   46.676941
H    2.747872   92.456596   78.737862
H   29.602596    6.802127   22.163288
H   84.971420   87.451683   66.499596
H   55.055214    9.626023   91.605637
H   54.121010   32.373112   24.006310
H   48.859146   91.278610   61.634773
H   47.527695   28.598797   17.928162
H   28.642586   73.034622   22.337873
H   55.106773   80.177223   71.980217
H   78.721382   48.466049   62.428505
H   76.724121    5.197517   62.496368
H   74.522285   16.268375    8.760564
H   73.809036    1.763652   19.503086
H   71.080109   17.234447   88.942657
H   74.879501   34.268536   66.320412
H   84.916756   52.027523   37.992901
H   36.826069   54.807648   31.361938
H   77.889259   28.925814    1.228312
H   68.496094   33.464569    7.130822
H   40.668037   45.534981   96.197792
H    9.518948   87.964035   30.706345
H   65.505020    6.683133   60.251293
H   50.943008   33.493427   33.787666
H   86.818932   81.991501   75.320885
H   10.739973   90.908676   25.566135
H   33.975208   46.425270   70.273430
H   75.807182   29.325253   51.443138
H   39.360386   77.457619   25.526991
H   19.416573   33.422127   31.437124
H   79.916512   48.052055   16.523436
H   74.844528   18.132711   94.030220
H   54.583721    8.700819   44.980068
H   30.114212   11.119188   92.483894
H    4.095639    5.412363   61.494072
H    2.336514   55.948685   73.595581
H   83.177750   33.358101   32.658657
H   19.444237   73.281036   92.356834
H   80.806488   11.945354   84.955727
H   63.535007   48.231522   70.558624
H   55.948410   13.177097   47.366486
H   73.851891   16.989281   15.979048
H    4.846992   64.147285    3.005649
H   56.680660   78.570770   68.398415
H    1.160749   63.429016   22.238750
H   95.339600   53.685764   18.718323
H   42.946918   89.764442   38.581207
H   97.718887   14.160040   43.766571
H   76.432442   68.847717   33.714455
H   89.625000   75.406326   88.276749
H   97.612068   66.523132   69.054504
H    3.656898    4.036451   17.632614
H    8.362899   56.459206   24.272591
H   24.551088   14.019789    5.483531
H   27.368965   80.092979   91.338043
H   25.954407   48.690784   33.853050
H   69.267014    2.907970   84.571510
H   12.213936   52.753189   29.850044
H   22.475574   56.054962   79.537750
H   97.741142   85.767334    7.819801
H   52.953888   15.667547   47.838150
H    5.104515   40.691948   23.818760
H   39.455811   27.640354   57.068218
H   22.363213   79.526543   52.377716
H   59.510178   69.352776   53.595718
H   94.084724   54.380016   84.710297
H   65.519585   45.775101   65.251778
H    8.064157   83.378319   48.159779
H   80.290207   18.741503   54.631908
H   52.377956   38.163151   23.185991
H   51.596222   40.209629   13.780930
H   16.624445   25.296444   52.381699
H    0.437229   26.628975   34.005676
H   11.498216   22.522610   60.558887
H   48.881592   29.791088    7.806768
H    3.373082   68.972466   24.994179
H   68.955360   12.852975   62.793945
H   47.462601   96.857590   11.199036
H   28.825624   42.210850   99.250229
H    5.903333    3.410847   25.616940
H   58.998886   43.592785   64.681511
H   65.379684    5.771445    2.743939
H    6.666196   16.016075    8.733559
H   85.945488   58.665443   11.821686
H   23.326290   44.401756   62.123177
H   52.135632   76.926041   12.986712
H   54.607746    9.620788    4.054531
H   75.989098    3.022558   87.445427
H    3.268959   69.899834   43.688721
H   27.973619    3.255796   71.485924
H   16.927528   26.151482    1.711127
H   61.131271   76.740784   50.209785
H   21.408674   31.258434   72.615440
H   22.684908   86.158928   16.715166
H   23.895561   71.684959   68.421089
H   40.966465   71.337021   19.560444
