100
TIME:    9.633, STEP:  9633
H   65.881500   38.629433   90.326736
H   34.435471   26.862026   85.496635
H   45.353283   66.940529   10.263071
H   83.093475   35.771782   12.144490
H    8.879301   44.884415    4.516380
H   78.639771   90.771950   32.733818
H   48.103825   11.803706   43.766323
H   62.751495   21.979137   23.723389
H   16.830345   60.118286   93.724129
H   11.646090   54.700611   84.891640
H    4.216788   53.845688   11.847944
H   88.175926    6.543081    7.241940
H   29.485321   78.915535   67.805878
H   78.113159   75.384285   90.315239
H   97.608406    9.565773   87.649437
H   14.200687   69.191513   33.418030
H   49.478493   19.119392   50.318344
H    7.063086   26.096962   65.597244
H   95.305801   82.469620   70.866302
H   32.985668    1.246318   72.192039
H   92.640350   97.221931   95.786911
H   85.905441   56.871933   98.939377
H   57.127769   16.285032   56.739319
H   24.012928   52.066864   91.643768
H   85.053574   22.215187    7.678089
H    2.184537   42.122665   84.373894
H   31.414265   42.044811   91.098373
H   19.737368    6.075582   85.188225
H   20.631634   23.073042    1.815660
H   70.365120   52.422806   49.184212
H   95.174034   85.865448   47.246796
H   73.990860   86.362167    7.488981
H   48.893669   63.686234   65.613670
H   85.118927   90.915794   65.928429
H   41.217094   30.316689   11.131736
H   10.017782   39.931690   89.142372
H    3.729433   51.754158   67.508072
H   65.840126   82.666435    2.216184
H   38.460369   71.530540   10.803326
H   55.871845   10.373147   95.938797
H   76.904327   86.714249   69.293785
H   88.396858   79.379868   71.739250
H   94.188751   21.274872   97.274986
H   64.251991   74.338844   22.597202
H   21.060980   51.830814   80.433670
H   53.784538   46.645550   22.296473
H   17.004429   48.716419   17.938532
H   56.775570   94.586777   64.612625
H   46.610832   34.645077   60.211708
H   27.979803   77.360558    9.993092
H   44.919865   39.796333   51.781189
H   73.292755   69.868958   41.689735
H    8.680325   77.864136   43.403206
H   53.610207   50.035187   56.893684
H   73.800972    2.794382   82.270676
H    5.593649    2.400743   64.696732
H    6.943194   11.590368   72.165886
H    8.763152   67.169090   65.431175
H   50.014278   45.799751   71.960640
H   23.340572   68.213577   89.625160
H   67.361481   30.592524   63.337772
H   57.023918   38.279465   59.494331
H   28.048717   49.950699   72.909531
H    4.520268   94.238022   65.606812
H   14.672465   91.470894   92.647636
H    9.579416   63.388634   15.762986
H   14.694778   81.399139   32.144176
H   14.948731   68.458931   26.715714
H   37.009781   57.620392   56.069012
H   25.666199   32.484882   81.412186
H   16.133236   39.968151   46.602028
H   80.012627   31.747459   62.139507
H   78.902603   41.822231   14.757984
H   18.151157   39.747532   30.792871
H   26.501589   42.499325   31.682028
H   53.390076   24.957317   47.750122
H   41.664986   92.039230   61.588799
H   84.547890   20.850624   46.445381
H   23.451246   25.223560   25.161974
H   27.113716   84.263771   91.029762
H   99.397636   28.940165   55.734718
H   64.147179    6.948886   81.106651
H   27.181566   68.216103   47.341793
H   12.884542   36.476273   83.591606
H   83.284698   46.317390   13.942855
H   29.587330   62.892479   10.728040
H   10.521212    2.954314   82.881737
H   10.953270   34.235085   95.702011
H   55.597172   57.822090   49.405281
H   14.651992   12.947456   68.571030
H   18.245382   93.584656   36.893456
H   91.043350   19.973112   17.074442
H    2.947475   16.552092   63.939262
H   76.175697   97.437424   79.531639
H   90.041046   86.864021   37.440773
H   89.567871   15.335808   69.891891
H   97.980461   20.496368   83.185211
H   19.683390   63.099552   85.493065
H   49.819054   78.399818   38.173130
H   37.553833   31.437107   69.763229
