100
TIME:    6.224, STEP:  6224
H   96.419022   51.249626   93.447769
H   28.582878   42.133892   70.549721
H   86.749573   21.683262   50.284184
H   82.521286   76.221222   99.003418
H   39.423248   71.638474   96.947906
H   31.502819   94.465172   95.129662
H   26.770824   81.612160   77.177986
H   30.692169   27.057156   36.727001
H    0.630081   87.881088    8.307706
H    4.760393    5.751200   51.412510
H   21.313705   16.678427   40.222305
H   18.287392   35.667423   49.897667
H   46.900497   85.212517    6.573662
H   46.905281   85.891762   30.889294
H   56.202705   14.074463   51.589657
H   51.270630   67.355202   16.394516
H   23.610176   93.640572   39.983620
H   34.164387   91.979370   83.769081
H   42.206905   39.458382   91.267151
H   24.832253   73.637245   40.091454
H   94.935745   36.598667   88.313133
H   59.081284   52.346436   89.247208
H    2.643087   44.002831   54.274796
H   40.758671   11.285372   44.825314
H    6.978904   92.564987   82.505531
H   18.173819   42.662949    5.140738
H   25.376057   83.753128   23.460417
H    7.379182   46.954979   72.506943
H   46.505974   13.782135   62.960236
H   39.648304   36.795952   78.178909
H   61.011024   80.173363   16.955864
H   58.744389   80.548492   23.077171
H    8.766813   13.105028   58.504028
H   41.081093    3.330320    9.544477
H   26.058105   88.425941    3.723123
H   13.679459   72.919044   99.857918
H   76.761116   76.598755   98.892311
H    6.744286   45.052288   61.650654
H   82.355591   45.805534   41.160164
H   76.961700   29.513000   27.725431
H    9.885620   69.741585   88.980446
H   75.689117   66.010559   97.706474
H   64.851044    0.823723   51.039536
H   81.919998   17.112448   89.285606
H   16.770214   86.324814   88.714462
H   97.785057   81.630112    8.446890
H   90.359665   63.320328   85.209435
H   56.571812   59.475159   53.683765
H   46.962219   16.978638   96.195328
H   56.415600   25.465055   48.350243
H   43.074223   68.756439   19.037651
H    7.607569   86.198914   65.469276
H   37.977039   58.097595   41.388775
H   32.558174    5.650113    6.464869
H   45.231102    4.046054   53.287479
H    1.347744    5.986679   80.747147
H   90.826805    9.955800   47.941689
H   62.603668   89.107277   53.239853
H   81.150238    1.747939   33.665916
H   48.298248    6.184621   86.585228
H   52.315540   89.127090   29.124012
H   78.015999   70.009964   13.736737
H   96.607445   82.568275    6.672089
H   70.431625   75.667877   58.160923
H   79.364838   63.744831   75.182915
H   18.996407   32.859489   14.195237
H   88.205002   63.539501   67.556900
H   50.431557   73.494362   63.745792
H   67.107094    2.569384   69.875366
H   56.480087   61.192863   88.627167
H   24.392815   71.920059   87.487556
H   60.768871   44.962616   12.313548
H    1.174239   10.442810    2.162289
H   93.196098   55.501232   33.343956
H   62.253323   37.514462   73.219376
H   72.799232    6.472332   77.132568
H   32.055264   87.097557    1.125071
H   24.395168   43.748512   58.169395
H   59.974659   35.236874   87.122887
H   94.294662   69.968849   84.718071
H   32.666435   93.671799   51.982700
H    8.341339   84.834290   66.303459
H   11.556077   11.205783   22.685486
H   78.350304   44.760521   94.951347
H   49.272331   59.571640   44.405334
H    8.043034   37.671837   73.996613
H   82.841606   50.817284   20.327826
H   56.128044    7.022551   31.044601
H   84.848251   47.629539   77.286507
H   16.053221   53.205196   46.709290
H   78.734367    9.510361   64.901291
H   38.811871   63.583572   52.116234
H   84.423950   14.269452    0.316055
H   48.792469   90.776070   46.473724
H   48.983192   92.221176   59.106846
H    7.998518   49.952301   45.971329
H   68.570518   24.862535   79.241272
H   26.263567   94.422653   53.933296
H   12.215972   63.679516   23.711731
H   25.807962   18.917355   98.162254
