200
TIME:    0.880, STEP:   880
H   29.136885   60.350971   26.283180
H   33.668274   42.221428   15.879085
H    4.723824   97.150848   76.871635
H   39.415573   84.454231   27.763855
H    8.415099   99.949951   44.456841
H   68.798279   35.444389   46.606361
H   12.631682   54.850029   62.039059
H   17.230669   16.521667    2.355347
H   13.418962   77.911499   32.106625
H   88.331985   65.933067   70.828316
H   34.500912    8.265656   13.186272
H   33.424286   59.105362   43.237175
H   26.882183    8.248949   35.061211
H   74.154305   55.907131   73.105644
H   88.722916   76.871346   41.403885
H   10.645779   99.596786   40.516853
H   14.317051   37.692184   84.361862
H   21.365280   13.934464   32.126324
H   86.319366    6.531980   51.905220
H   92.092384   70.915611   12.661069
H   65.765739    8.706238   96.519501
H   75.780983   73.277260   45.911606
H   75.840172   57.888138   33.779762
H   22.164139   93.894142   89.579247
H   31.064072   38.443794   22.573437
H   18.131308   90.739456   85.818855
H   11.289844   71.638557   74.814285
H    9.198579   96.530800    2.415283
H   38.024158   37.076607   34.590805
H   64.128525   37.909542   76.487228
H   12.525921   78.187538   16.977283
H   20.287868   78.506332    9.360441
H   11.659431   22.756601   80.996536
H   75.244911   64.276161   49.476822
H   17.274961   63.355759   29.350260
H   12.152046   35.330154   86.811729
H    4.633426   60.615524   90.759621
H    1.258155   61.310490   86.392365
H   29.383728   23.483589   58.657707
H   83.945053   37.056652   38.696381
H   80.694740   75.326523   22.767281
H   45.194778   29.686266   20.853371
H   65.178421   73.079781   74.092934
H   35.855484   94.317879   41.637226
H   50.644501   95.821518   67.459618
H   32.053444   97.182686   49.648327
H   92.034698   94.856567   10.210601
H   74.534767   65.540840   24.639847
H   11.831443    4.465343   61.627758
H   39.214565   20.689688   78.636902
H   62.983627   62.395531    2.505222
H   96.673515   46.713604   77.301491
H   69.439415   76.120110   16.290634
H   12.881247   95.689560   91.180702
H   50.109055   62.151535   70.075111
H   97.101738   56.582306   99.605255
H    3.604040   19.167336   42.789356
H   74.400864   73.457321   93.751396
H   14.676523   86.840744   22.605350
H   28.301044   92.395424   55.163177
H   48.346764    2.889847   23.537220
H    1.439163   17.940996   53.972755
H   89.079147   38.463928   63.293041
H   39.633232   66.065422   17.956963
H   81.636459   85.620087   44.100819
H   13.633883   41.425163   44.367203
H   62.268898    9.661944   99.057777
H   93.757439   92.905006   99.942451
H   39.286987   14.501929   53.879219
H   41.552883   52.784771   50.948414
H   58.184402   87.661469   90.400482
H   14.153439    6.999631   40.284847
H   97.806290   36.727551   78.065094
H   28.715956   94.897148   79.204994
H   86.938004   11.231688   37.519943
H   69.490517   96.482094   58.695343
H   92.722504   53.775879   63.092594
H    2.850687   17.623991   26.082771
H   16.399767   58.202415   20.752020
H   58.631176   87.097610   63.910065
H   70.531181   19.285398   91.631927
H   54.778316   57.079990   68.072075
H    8.502765   20.686563   71.554131
H    3.803767   82.787331   14.710382
H   16.117691    6.091620   39.644989
H   42.697495   63.381744   14.460138
H   64.539253    4.117727    3.238597
H   70.009224   94.724640   35.581413
H   85.275223   73.614914   79.475586
H   20.238564   14.734617   47.824490
H   14.414972   40.417698   77.907806
H   79.597420   94.150696   12.332523
H   77.663620    9.644081   77.502289
H   31.329107   71.440483   86.677910
H   41.341240   48.268974   94.595055
H   42.768166   42.018379   98.970314
H   87.987236   92.141991   25.892418
H   95.762596   39.495213   55.990768
H   22.515953   63.366898   55.149315
H   78.332359    8.326532   27.406656
H   38.420803   98.121704   99.076515
H   14.370034   86.339188   62.334328
H   36.445999   13.780387   39.445919
H   52.628258   69.121124   15.578174
H   24.490351   19.062088   45.837048
H   12.760721   95.438828   13.926696
H   89.514442   36.931370   51.943081
H   60.979710   58.847130   93.994270
H   89.061211   32.011040   30.079853
H   24.925814   19.137049    8.669588
H   55.614952   90.505257    1.246138
H   11.691391   79.439148   97.801201
H   45.978317   87.701416   80.014473
H   61.056206    5.599792   58.450897
H   42.492836    8.618739    4.332156
H   87.920021   87.075874    7.806688
H    6.261237   17.454649   91.641037
H   37.524044   58.497944   21.185539
H   43.167198   81.741928   51.909733
H   87.672279   59.448299   73.218216
H   47.234261   26.012363   66.548149
H   90.675262   12.318897   67.013458
H   47.666084   94.830032   43.015453
H   94.648285   44.288689   89.838371
H   57.765984   93.106560   71.646141
H   71.169037   79.863098   13.174423
H   79.478432   52.178207   46.337967
H   61.429649   92.589500   40.407848
H    0.343708   29.317165   70.305305
H   98.765701   21.115898   77.404930
H   74.443916   62.334137   27.869350
H   57.134575   92.399033   24.419758
H   90.347908   13.731890    2.136604
H   69.538727   29.411831   57.583660
H   36.042484   89.797882   27.007706
H   45.312180    0.805470   74.252892
H   69.952286   88.195381   87.199013
H   96.677330   44.238041   73.086067
H   63.041748   53.283829   71.398720
H   43.794624   78.396019   77.674286
H   82.302231   44.247864   35.583740
H   27.775581   60.456627   61.166325
H   34.431770   68.539833   77.797333
H   28.386909    3.360714   88.729897
H   70.384949   48.541489   69.996277
H   69.390404   73.001572   99.194176
H   59.867973   93.975060   42.699375
H   25.176857   49.595451   65.153099
H   82.294647   38.071159   91.582153
H   29.863396   95.662102   66.046738
H   53.662750   72.179092   46.512653
H   60.728287   89.400322   28.096176
H    5.907277    7.907925   80.998428
H   26.827835   15.833155   60.136494
H   38.990955   70.781876   72.331047
H   82.501122   45.115818   73.752106
H   66.010483   80.077530   88.333908
H   55.145187   26.391342   24.718029
H   83.089989   99.322678   78.869759
H   56.504383   30.830481    2.801400
H   60.242569   58.408409   66.399284
H   13.554529   19.739651   29.999542
H   92.768181    6.666019   36.965939
H   34.766846   38.980930   43.817780
H   52.826256   43.804672   16.112986
H   22.940308   44.075527   58.803288
H   63.879326   87.215401   59.006367
H   24.191296   60.051216   74.477554
H    2.769825   26.088911   35.345703
H   55.679497    5.630002   83.196320
H   67.138428   13.244903   35.922363
H   24.053125   41.675285   59.423447
H   50.038666   49.952991   72.416214
H   63.344872   59.230797   89.087906
H   41.691772   90.222092   69.138649
H   20.663445   51.122322   23.912384
H   28.843037   72.914917   13.679199
H    7.402243    9.811211   73.063797
H   59.233669    6.501245   61.650257
H   55.856850   61.320335   95.413322
H   69.733246    8.124497   26.839352
H   32.136589   30.887295   92.980423
H   36.166393   89.491241   18.746780
H   65.418373   26.404568    0.735190
H   93.799332   60.575592   75.760117
H   12.658470   41.624161   87.157326
H   53.637146   93.562325   13.446035
H   59.673981   94.333931   47.921211
H   88.083656   64.027382   73.857864
H   61.251755   54.791866   73.788956
H   78.392853    9.850029   74.731148
H   42.406334    2.321877   16.472532
H   18.316353   32.749916   72.468269
H   23.922808   89.073120   46.211231
H   62.931595   25.669182   19.722778
H   76.890640   11.953880   20.798061
H   13.715430    3.010873   25.068342
H   10.309450   84.686455   28.917397
H    3.378775   13.402666   49.394020
H    1.332565   13.309635   88.857193
