100
TIME:    5.563, STEP:  5563
H   41.119057   11.866513   94.052933
H   46.838173    6.313564   28.870060
H   75.382584   74.128616   58.045406
H   82.410339    3.453892   35.235748
H   45.343765   18.656404   14.869732
H   41.755299   95.181282   29.668581
H   61.411777   36.978291   25.486925
H   82.645462   69.871292   97.417091
H   16.878777   51.433655   49.916542
H   22.817972   96.259804   25.530539
H   82.798325   90.082092    3.893544
H   43.517670    2.535230   96.949135
H   89.080399   25.185169   72.254082
H   79.634544   87.929146   80.587044
H   48.165764   73.117966   83.364380
H   77.847397   25.168839   71.263397
H   76.763710   49.919125   79.810181
H   20.028776   24.141903    6.683889
H   31.914059   11.726764   56.441082
H   42.639191   87.677040   95.087563
H   34.160408    2.402397    6.255337
H   95.710571   51.468948   45.537430
H   11.469316   49.378700   73.186157
H    2.174696    3.377901   93.916138
H   30.618587   44.986572   77.623878
H   21.187029   62.204689   67.297409
H   82.375504   11.228956   10.344040
H   63.150967   16.101723   50.657455
H   32.133339   53.810734   94.206848
H   14.303715   53.155540   25.630844
H   34.994034   20.900784   69.252083
H   17.008274   98.814346   84.269295
H   62.208660   61.466698   98.955925
H   13.151221   63.906975   37.390053
H   42.490814   38.400040   63.474541
H   56.219563   21.146770    1.936637
H   13.363435    0.805369   46.807903
H   34.063259   57.150517   15.007645
H   10.255162   60.208427    5.216558
H   39.221043   91.393684   75.720360
H   55.059845   47.061806   73.407570
H   31.649727   61.529869   64.149208
H   59.158215   96.859604    3.295931
H   24.127659    6.017670   24.656916
H   74.105980   12.405526   32.151836
H    6.315640   69.022537    5.761477
H   85.195602   27.373287   78.865303
H   56.536510   52.667068   12.784797
H   27.642372   71.721436   22.563168
H   42.550617   15.403769   94.581345
H   43.120197   32.572144   12.069995
H   75.484062   47.534916    8.860443
H   24.265041   54.264893   79.779289
H   47.863770   16.435944   77.296532
H   97.860161   46.119991   47.664501
H    0.524424    6.681987    3.249161
H   48.921043   29.028938   85.074974
H   11.823329   51.531120   70.265121
H   29.018782   73.819405   84.408882
H   91.918640   55.379726    5.385628
H   10.618639   19.867111   80.660362
H    1.476034   76.162460   43.646851
H   51.733189   27.674242   51.998840
H   25.040417   72.067154   76.105667
H   53.128906   16.536182   13.626937
H   59.602074   65.719872   75.111305
H   41.238953   40.689533   35.644608
H   96.091148   35.691807   32.146168
H   34.161457   50.064629   11.330129
H   43.090843   27.944477   90.019043
H   45.382820   16.894241   95.415199
H   15.272642   66.899796   63.919960
H   44.273697   43.136772   19.111877
H    7.747684   97.337181   72.619072
H   30.386290   36.571415   23.111385
H   57.173721   64.110405   21.610498
H   72.040001   44.382496   89.432671
H   93.340179   86.969643   21.662905
H   28.279217   37.178440   79.749977
H   26.708679    5.975877   41.663757
H   19.731066   86.833450   12.476739
H   58.729263   80.547714   21.595945
H   69.748085    0.152391   59.736538
H   32.875710   88.196823   55.322140
H   81.456947    0.915034    8.481922
H   23.257854   13.391582   28.094955
H   38.694923   98.877357   88.808762
H   45.497337   59.917698   37.898079
H   71.131210   84.433571   82.692635
H   74.495300   80.399216   23.081743
H   51.683556   73.816574   50.942181
H   89.904564   13.870252   39.523788
H   42.052414   94.436684   49.199909
H   84.910194   50.673901    1.903742
H   60.410698   51.430653   43.917240
H   53.402588   76.055023   80.112640
H   21.037569   86.929985   17.256165
H   27.284666   63.603302   67.012047
H   43.704498   60.830204   79.077782
H   84.750320   35.879009   61.840191
