100
TIME:    8.775, STEP:  8775
H   23.904503   17.312128   91.112259
H   58.132065   80.368835   31.396412
H   30.605097    5.212973   20.335056
H   82.949463   71.120293   59.176399
H   16.567602   76.112198   27.778473
H   91.941284   91.701485   47.763916
H   93.072670   53.868980   76.669594
H   30.188599   47.750347    2.501708
H   37.921623   42.612259   47.732738
H   35.083687   42.381001   51.297462
H   84.025909   19.323177   94.497200
H   20.923302   63.536007   68.314995
H   84.196960   30.848267   53.071426
H   20.595858   78.028877   25.021320
H   87.187141   86.206581   28.911118
H   48.699905   44.235435    4.638887
H   18.473854   62.367413   72.211220
H   88.710495   67.847481   95.342361
H   81.938828   46.476414   25.663006
H   56.099667   19.467157   13.775354
H   43.555779   82.638397   19.076067
H    3.648140   55.732925   72.005981
H   68.583305   23.259817   81.286896
H    3.733498   41.802704   55.367092
H   15.740438   90.258545    1.344663
H    6.231798   67.416489   65.116470
H    5.400499   77.711563   74.078720
H   92.132904   66.027039   56.829208
H    1.974466   45.228420   42.372490
H   37.464821   73.658096   80.976135
H   61.409161    8.927382   15.129005
H   19.815998   10.069494   86.918388
H   88.455948   26.461281   88.318253
H   48.867065   69.546326    2.075397
H   62.570213   95.279396   58.931995
H   35.432865   72.727890   91.839333
H   21.436012   83.175056   99.901146
H    1.306289   98.363792   41.668114
H   74.677574   90.225975   93.950043
H   36.686661   90.697075   28.432959
H   35.541901   57.271744   49.079678
H   60.704697   76.014328   27.940594
H   86.804840   16.126427   35.300297
H   19.031277   59.935753   38.707119
H   95.489822   85.682198    7.011427
H   64.854362   30.280842   18.810717
H   10.296149    2.051922    9.699114
H   56.723202   85.749649   11.524540
H   21.533028    5.705486   94.435028
H    9.971153   64.294701   69.985680
H   42.899059   22.474041   45.930252
H   31.594568   49.484478   98.011696
H   90.885918   72.889160   93.234116
H   73.480499   64.037109   19.032623
H   42.116676   27.603640   74.978409
H    4.525011    3.303275   93.905075
H   52.547798   36.347710   90.562889
H   72.651306   48.196953   87.530540
H   82.342995    9.543370   37.828865
H   79.958946    2.262898   14.028709
H   13.234064   70.491699   30.228046
H   87.476006   46.265610   98.312996
H   69.796494    8.492457   31.742371
H   45.603733   89.564163   88.897552
H   80.618622   60.000286   12.746185
H   62.286781    6.042275   65.030846
H   83.533554   51.735279   90.718552
H   74.216431   19.389122   85.698349
H   94.246002   19.270790    9.879192
H    8.240691   89.390213   83.231979
H   43.382412   98.348259   56.892372
H   50.666809   60.235741   99.250473
H   34.845245   84.263206   36.759159
H   37.036427   94.050392   81.773201
H   85.172104   41.235943   66.628052
H   33.103958   69.969231    5.483766
H   63.740067   66.302856   46.369301
H   44.240704   76.950020   99.058472
H   82.306175   27.743778   15.585217
H   69.191154   31.004103   64.947136
H   82.600548   20.063761    4.452825
H   99.765701    1.379041   52.886871
H   72.913307   53.867222   65.630653
H   53.854370   63.055031   61.955639
H   25.061401   99.992599   97.115921
H   49.336674   31.373455   51.145889
H   53.217258   65.338173   41.969109
H   97.155174    2.889832    4.594759
H   37.791996    5.594723   56.422615
H   90.510818   48.250145   37.901947
H   83.131828   47.254292   18.774071
H   27.560038   55.443130    0.728744
H   47.947865   90.808983   97.588806
H   95.335403   45.541981   18.483030
H    4.875161   63.719654   17.726530
H   18.700653   49.216431   14.208971
H   66.084099   71.258034   32.530708
H   21.339533   20.647736    2.721670
H   90.692406   74.694771   10.038593
H   84.260254   53.451458   52.417141
