100
TIME:    7.950, STEP:  7950
H   79.696281   92.968407   91.867569
H   80.917252   35.663082   79.378738
H   16.424150   45.858444   30.018761
H   82.810989    5.109722    4.395384
H   23.960199    9.984807   50.147644
H    4.732980   92.595268   66.062080
H   36.310780   98.158813   12.153522
H   95.031967   76.377464   78.251549
H   58.201698   21.933025   99.662277
H   57.617104   30.535219   18.994102
H   60.765396   86.128220   73.964661
H   52.413437   22.182781   27.039001
H   36.804695   80.782669   35.057972
H   61.444664   80.571754   62.239803
H   77.166695   59.899643   68.584503
H   81.870605   16.393066   73.121368
H   84.815254    7.802321   97.108215
H   71.072708    7.992044   23.940098
H   69.085968   11.864331   82.198517
H   78.328720   36.986309   57.605568
H   92.512459   64.770630   41.466534
H   24.554583   54.637726   42.262329
H   79.598244   29.966341    4.890666
H   80.388672   31.933321   16.637386
H   45.246162   55.686348   95.252480
H   10.122463   91.737473   42.752190
H   76.542130   12.004148   57.711254
H   61.742813   27.518820   29.556501
H   84.035728   70.378220   81.371666
H    5.832015   94.076645   15.390842
H   28.937418   34.947731   80.400383
H   67.725151   32.861385   63.292747
H   30.343874   86.822853   13.995740
H   14.007972   45.152596   36.829651
H   83.102058   57.743462    8.735577
H   63.717579    8.106832   94.432564
H   42.307354   13.388807   34.894131
H   35.404427   13.461718   83.450691
H    9.498803    8.200937   73.898369
H   14.392658   67.931763   63.525223
H   91.925797   28.966497   29.643034
H   30.231346   72.779083   85.821678
H   79.704926   11.177532   75.709633
H   71.708298   46.082787   58.043461
H   67.051216   18.227039   36.413361
H   75.504234   14.548362   15.459028
H    3.846382   57.186348    1.776340
H   56.672848   77.252411   60.478497
H   97.418831   74.030525   27.344707
H   92.652100   51.737522   27.668030
H   42.955708    2.121943   37.231598
H   91.498184   26.037481   52.168915
H   73.778145   68.105530   41.148048
H   92.589844   77.494217   82.628311
H    7.803759   55.305580   67.966614
H    3.497474    4.171095   21.990036
H    0.248425   60.152565   12.098683
H   34.081955   26.108168    8.780650
H   17.273750   74.684776    1.164276
H   34.400696   38.851917   37.493675
H   61.192791    8.860363   94.551979
H   16.756905   53.944595   35.641853
H   13.785632   64.789337   88.315094
H   88.952080   85.070068   11.295150
H   47.872833   25.890692   35.918228
H   12.967308   47.055229   16.250401
H   49.725342   23.215061   50.888531
H   31.205009   72.206230   46.258575
H   53.130295   78.550041   61.624039
H   91.485115   47.951305   84.981781
H   69.584038   54.484406   66.786934
H   18.604500   87.628319   38.777943
H   88.635910   25.073046   57.914135
H   55.195339   46.263737   30.790972
H   45.430206   40.021152    4.076095
H   13.598271   17.092831   60.994003
H   88.812218   37.708076   31.735224
H    5.485225   30.891750   53.489552
H   42.743896   30.167065    6.378302
H    9.650098   75.945122   36.021523
H   66.449501   11.528756   55.143555
H   37.858109   96.027512   21.907532
H   20.729433   40.070225   87.060776
H   97.097023   92.457642   37.307369
H   65.231308   51.599621   77.089714
H   68.324997    1.069785   93.855209
H   98.117302   25.322716    2.629950
H   83.886894   68.908142   13.148834
H   20.669552   51.528709   63.170052
H   63.453014   82.191666    8.411272
H   49.369465    2.709423    1.351291
H   66.518394   93.395706   85.005974
H   95.063934   66.059990   33.790283
H   15.603014   95.490196   62.855068
H   19.140907   37.617302   98.769867
H   50.559006   81.795471   56.821114
H   31.568342   23.913219   79.976768
H   22.931978   79.824944   19.284990
H   29.993217   71.132225   79.141792
H   33.016270   74.622177   31.891499
