100
TIME:    2.233, STEP:  2233
H   66.313629   17.243729   97.101639
H   39.155327   25.814066   18.856863
H   18.138075   34.554474   97.123528
H   81.851410   40.651268   17.764446
H   75.170273   51.742313    5.159546
H   93.390999   98.788918   99.886772
H   35.939045   12.119745   65.076363
H   44.376900   81.784637    3.166664
H   98.736534   71.599518   59.528851
H   13.818632   48.445930   95.130424
H   92.546814   56.092075   24.655947
H   70.614761   35.619263   33.981133
H    1.221925   26.607948    3.187353
H   44.516243   98.193123   27.172298
H    7.661178   70.566711   43.434433
H   11.740265   16.422920   47.683365
H   44.537582   29.668861   76.662430
H   48.862846   86.109734   22.131527
H   80.043526   72.031799   81.005264
H   32.357552   58.391773   68.365669
H   31.767242   33.915295   96.636856
H   76.460236   47.048325   29.117676
H   55.930260   76.461372   68.461426
H   11.571663   63.463047   41.232414
H   49.718620    9.077286   53.037331
H   36.420086   61.070240   79.872551
H   69.525597   49.654972   44.277798
H   44.127640   60.668606   40.582996
H   59.725250   51.687050   51.616814
H   86.616936   35.573441   60.905605
H    3.942095   22.290674   32.714657
H    6.750206   90.817604   92.544090
H   27.646778    5.105774   98.963226
H   72.450661   69.081650   77.678589
H   25.266079   90.122345   60.701134
H   66.705185   59.899128   12.963620
H   93.972961   22.759146   84.417053
H   71.695717   18.083836   80.017723
H   50.818565   32.762024   27.917635
H   52.869244    3.136783   13.721571
H   82.640114   32.803356   94.953049
H   30.931885   12.075126    7.709896
H   30.474974   76.890579   62.764099
H   36.766533   50.196594   99.065231
H   62.958294   43.787220   47.195168
H   49.278782    5.507832   92.237190
H   59.175274   46.276215   46.891113
H   56.358669   18.374174    6.743282
H   30.302786   47.511738   55.400406
H   72.719780   64.736717   27.485760
H   43.374256   54.061928   76.961243
H   13.652536   56.534100   27.469524
H   55.200890   34.956421   73.181541
H   24.982487   70.775963   30.351797
H   62.992287   54.262379   19.354017
H   96.360214   10.185173   16.610214
H   37.813938   25.114983   68.364311
H   59.783051   66.008301   56.039017
H   66.387718   33.119106   40.054703
H   11.664543   99.422745    0.098754
H    0.559572   74.726021   40.293179
H   19.658951    7.159092   94.317429
H   25.695412   54.879601   80.365646
H   96.375122   53.941460   66.517784
H   20.952969   82.498322    3.515752
H   64.168526   31.263893   78.217735
H    8.410513   25.563951   74.871353
H   26.117348   45.245239   72.952911
H   68.196190   89.337196   20.182083
H   75.623108   60.458031   97.031067
H   51.124992   43.466637   35.365040
H   89.846191   77.416092   20.111101
H   61.395950    7.854221    4.490276
H   81.048729    8.070281   70.494728
H   69.832054   31.820993   70.674423
H   78.448891   50.687737   45.676632
H   69.697693   33.005066   30.541513
H   36.890728    4.709766   37.760563
H   68.591476   46.959705   42.591942
H   90.014748   87.340286   28.546150
H   54.580204   52.383068   13.450140
H    8.867132   58.810745    0.054913
H   59.084904   44.528412   42.582035
H    3.779604    3.242281   59.469971
H   43.601303    9.207956   31.288040
H   99.895508   91.076256   96.849419
H   16.291754   40.995636   30.021467
H   91.902054   26.514999   72.525490
H    2.022690   69.842354    9.930939
H   68.912094   17.402840    4.043227
H   15.406219   94.007507   80.618607
H   43.508358   63.446529   76.070015
H   28.557110   94.541794   91.665878
H   63.056698   48.681278   77.377647
H   17.983986   49.711700   67.398705
H   78.358215    7.553034   52.111649
H   85.357529   95.827965    8.767506
H   15.063951   35.250336   20.306866
H    2.338583   46.475880   58.001694
H   77.918167   21.346588   82.615753
