100
TIME:    7.835, STEP:  7835
H   87.473381    3.514408   91.972855
H   84.093369   29.431049   72.128067
H   14.447412   37.584747   31.368610
H   82.791687    9.848015   10.699080
H   24.990683    0.767135   53.265854
H    6.516475   92.719856   54.672966
H   42.337505   90.393997    3.160369
H    4.070747   66.427971   88.809944
H   61.028618   32.990173    6.901160
H   60.758125   28.883989   14.490948
H   71.462418   81.500916   85.042465
H   56.802971   16.418392   35.224693
H   44.137840   87.743805   46.485851
H   67.138863   80.926216   53.487934
H   75.769905   70.172012   74.115509
H   86.494400   26.451355   82.667267
H   94.062843    0.196200   86.639313
H   68.614288   13.587757   27.926476
H   67.294357    7.039639   76.139328
H   81.427628   39.428059   49.775826
H   99.336723   76.218689   44.587376
H   13.529420   54.485062   52.055649
H   81.133659   30.901190    8.181062
H   91.073410   30.557589   25.178246
H   49.359322   64.806641   94.403175
H   10.664684   95.127670   53.574677
H   86.458282   16.784739   55.429188
H   71.446434   22.151007   25.755251
H   81.535194   59.944416   86.807915
H    1.422552   96.922867    6.248957
H   24.411451   24.635567   89.498817
H   60.463955   36.038380   73.938881
H   22.243460   95.236931    3.635632
H    9.148820   55.691689   41.674545
H   85.964073   66.450584    1.738608
H   53.720707   99.099228   94.794044
H   31.277775   17.600672   25.832548
H   40.157196   15.566334   75.334923
H   14.353129   10.706297   85.042854
H   25.224358   78.697220   54.476799
H   99.785370   25.020918   26.933683
H   39.922890   72.328110   79.950249
H   78.715240   10.487692   67.402596
H   79.051971   44.152550   46.799831
H   77.027031   22.763973   26.572418
H   76.988762   12.355350   14.991823
H    2.947396   50.932381    0.671883
H   56.665829   76.067947   53.362942
H   94.056709   83.555367   31.932091
H   90.237549   49.987148   35.708984
H   42.963604   13.224752   36.019058
H   85.909271   36.708813   59.717896
H   71.393425   67.438721   47.826668
H   95.253571   79.370056   77.553543
H   16.960537   45.227112   66.989212
H    3.354242    4.292064   25.904907
H   92.957413   63.470818    1.161052
H   42.645187   36.968620   11.742906
H    8.203831   69.825844    9.992916
H   41.989159   30.012310   40.764549
H   53.938610   14.208216    3.518538
H   20.838478   55.014999   40.845596
H    5.978235   72.636627   96.200989
H   81.055656   84.443619   14.417527
H   43.307823   35.075695   25.208647
H   20.031536   52.772240    9.450492
H   58.951874   19.239212   45.336468
H   39.148811   65.629387   40.760910
H   47.398369   86.813210   68.836395
H   89.149529   42.175510   85.225693
H   73.235695   62.308884   68.166176
H   28.074505   91.446678   30.348864
H   96.134003   30.761541   60.863010
H   57.726582   53.541607   37.623932
H   39.890427   39.851818   95.356766
H   10.879489    9.722397   68.732155
H   78.367882   47.661957   29.695753
H    0.082866   38.410900   47.138195
H   37.229561   30.504856    5.094913
H   15.289680   82.209618   45.928902
H   64.198143   10.339028   48.270157
H   29.228931   95.281738   31.528446
H   13.455510   38.147007   76.109314
H   89.184807   82.616943   47.810490
H   70.830750   58.793262   88.237709
H   70.971176   96.845963   85.869293
H   90.436714   33.684151   97.146294
H   82.037376   78.110107   14.341194
H   18.282639   57.931831   64.110603
H   73.620148   86.922501    4.300427
H   44.663197   96.499626   98.922653
H   58.009556   84.746490   82.814278
H   87.692184   62.609776   24.897158
H    4.488833   88.513268   55.100780
H   21.129490   47.918625   96.127197
H   41.060486   86.336792   62.760979
H   40.696587   17.314003   86.590462
H   23.153955   74.134254   21.593817
H   35.471581   70.635628   88.773674
H   25.873514   77.573685   42.970181
