100
TIME:    5.744, STEP:  5744
H   28.878756   95.268181   93.887222
H   41.839241   16.121931   40.283176
H   78.495178   87.150696   55.920170
H   82.440720   95.996613   25.314301
H   43.722565   33.164352    9.962286
H   38.947887   94.985191   47.594219
H   51.926235   49.200817   39.641361
H   68.419220   85.530930   80.799095
H   12.429451   34.031296   38.522568
H   17.872576   98.858696   32.618565
H   65.962143   97.365067   86.458214
H   36.608925   11.607533   84.065147
H   77.530380   14.239304   54.268974
H   70.672371   87.371254   94.360344
H   50.366951   56.950150   74.664581
H   70.569946    9.337821   56.238983
H   62.208809   61.890324   96.287323
H   23.899496   15.335083    0.409667
H   34.732540   19.320444   65.976624
H   37.763161   83.832558    7.410800
H   23.419609   84.383972    1.342718
H   13.063217   51.709229   30.123596
H    9.052360   47.906639   68.007706
H   85.357750    5.543185   80.474258
H   24.145523   30.631905   78.960609
H   20.361929   56.853622   50.277298
H   66.768341    3.704761   13.935469
H   47.879368   24.550194   56.640984
H   36.068962   70.232635   85.650665
H   21.243614   48.675835   40.019730
H   42.118202   37.131214   54.931938
H   28.436771   93.812653   67.513206
H   74.957512   48.223671   15.261838
H   20.799320   47.319359   29.764814
H   37.991776   24.717512   74.496979
H   71.953766   35.323830    1.367395
H   30.723675   94.176880   61.070049
H   26.582813   53.837688   27.779804
H    2.614769   56.264519   87.676277
H   22.173182   74.449791   89.960411
H   42.689560   53.271805   77.671852
H   16.141125   64.128235   73.199638
H   60.717274   97.945007   16.369522
H   12.570633    9.055807   42.353699
H   58.405407    5.264441   47.640240
H    3.979985   72.474838    6.496817
H   86.609665   37.216812   80.602501
H   56.546177   54.531311   23.984060
H   32.932678   56.730835   15.342994
H   46.346767   18.158705   81.921066
H   43.107182   15.097307   13.978082
H   84.280525   30.738834   96.978065
H   28.019764   55.314392   69.267723
H   43.672676   13.482450   85.283775
H   83.448875   61.982624   49.204227
H    0.749880    6.491592   97.087479
H   60.395111   23.806297    2.289567
H   98.345856   34.438087   65.603134
H   43.293358   81.466942   70.514061
H   79.973679   69.291977    0.237571
H   22.036617   11.449898   66.547356
H   95.052132   74.477737   35.456612
H   64.021996   15.322618   39.587128
H   37.469696   73.053131   71.192352
H   60.313835    2.079946   30.483141
H   48.482903   56.721794   85.813438
H   26.716942   46.946484   44.383072
H   83.588295   46.043186   40.799015
H   43.183010   37.059120   99.977905
H   46.757187   37.048576   89.637909
H   39.635429    4.578873   93.244392
H    0.348623   60.892792   77.171280
H   32.472351   34.184265   14.470604
H    3.763724   85.881065   61.864464
H   39.112453   36.829647   36.832657
H   61.453194   75.710136    9.431658
H   88.472954   28.694006   92.633644
H    1.843897   75.135155   31.659388
H   36.958302   36.646786   81.768883
H   17.833809   96.116310   26.070324
H   23.273127   88.705978   23.294291
H   72.314224   81.721497    6.455044
H   81.195915    3.179103   76.973526
H   45.327469    3.685314   38.791142
H   72.643913   89.594154   90.936096
H   19.091618   20.040024   40.664093
H   50.783501   85.717186   97.439514
H   48.408318   45.433224   36.021408
H   74.887314   74.355614   81.212288
H   58.492718   72.953293   29.552046
H   59.090813   83.590729   54.764568
H    3.296731   27.482729   42.971947
H   53.654907   99.866463   63.196918
H    2.403576   61.654980   14.108058
H   57.281532   35.217266   48.076572
H   68.352432   68.907379   70.763809
H    6.670938   97.317268    6.846482
H   27.190081   70.670212   63.568306
H   35.082031   61.610424   63.918030
H   95.993774   31.234859   44.403309
