100
TIME:    4.966, STEP:  4966
H   81.492348   66.613838   94.599503
H   63.326363   73.964966   91.227783
H   65.116180   31.177380   65.054482
H   82.310135   28.051811   67.961067
H   50.691040   70.804306   31.055111
H   51.015102   95.828056   70.546501
H   92.702522   96.664932   78.800674
H   29.568489   18.224483   52.232944
H   31.554176    8.832758   87.494926
H   39.131798   87.687767    2.151134
H   38.329803   66.060349   61.398357
H   66.304619   72.610619   39.443306
H   27.176285   61.286537   31.575195
H    9.194482   89.769264   35.155090
H   40.905495   26.444086   12.060604
H    1.851080   77.384476   20.819736
H   24.771065   10.433848   25.462919
H    7.262562   53.188152   27.378389
H   22.615540   86.682800   24.990541
H   58.722008    0.357393   54.440987
H   69.587242   61.837265   22.458855
H   38.475601   50.676422   96.377533
H   19.440773   54.234062   90.266464
H   57.645763   96.236053   38.254662
H   51.971100   92.330460   73.214882
H   23.908491   79.850250   23.438223
H   33.854866   36.046093   98.498329
H   13.525485   88.235809   30.921732
H   19.152306   99.646690   22.426411
H   91.412308   67.931145   78.171516
H   11.497855   67.365494   16.484825
H   79.313545   15.308194   39.536537
H   20.155308    5.146529   45.173454
H   87.926422   18.618347   62.541374
H   57.330185   83.528488   27.123093
H    4.323913   74.386986    3.814242
H   56.102371   22.670399   99.766830
H   58.736332   68.075661   72.877541
H   35.456326   73.216789   63.069946
H   95.451958   47.283325   28.748529
H   95.861282   26.579100   59.342510
H   85.304680   34.734283   36.105595
H   54.015903   93.279572   60.172195
H   62.246349   95.996948   66.284470
H   25.892328   35.958305   81.064354
H   14.019218   57.635670    3.335165
H   80.531540   94.905235   73.135429
H   56.504627   46.518158   75.845879
H   10.193130   21.165905   46.379044
H   30.029613    6.317045   36.335396
H   43.165745   90.207932    5.776471
H   46.470314    2.931270   48.054054
H   11.881059   50.803284   14.451010
H   61.687431   26.178551   50.951866
H   45.394958   93.800056   42.585957
H   99.779800    7.309973   23.572449
H   11.075490   46.254997   28.295479
H   56.276749    7.910039   85.641953
H   81.934410   48.595032   30.240147
H   31.314053    9.490636   22.365730
H   72.959656   47.629299   27.207619
H   22.662588   81.719254   70.659943
H   11.201650   68.412155   92.936920
H   84.046181   68.815063   92.311462
H   29.430796   64.219086   58.031116
H   96.276909   95.398613   39.812004
H   89.136688   20.050648    6.820190
H   37.330284    1.547469    3.606117
H    4.405663   92.961250   48.774574
H   30.997797   97.916992   91.276154
H   64.339684   57.513489    2.575936
H   64.496613   86.712952   20.208652
H   83.198578   72.666542   34.420387
H   20.888134   35.120960    8.091057
H    1.602999   35.719677   77.854340
H   43.058556   25.846346   61.779415
H   17.835211   96.126167   78.874763
H   65.292038   26.005444   88.693092
H   99.652046   38.932018   73.090935
H   55.983185   38.494556   93.095978
H    8.048910   80.657211   76.795265
H   13.929832   76.659317   71.523582
H   31.985361   90.168396    2.879876
H   91.802856   37.110764    9.850175
H   10.525889   38.258980   66.354408
H   36.999531   91.463631   86.637222
H   98.822624   42.284271   60.341583
H   35.890366    7.704916   44.099144
H   58.742294   17.673429   87.575325
H   27.277231    4.959343    1.741065
H   27.251884   41.581234   38.334637
H   45.732609   68.969986   28.150579
H    3.783742   76.527077    3.032967
H   27.210434   14.456861   61.649166
H   70.731758    4.904841   30.198635
H    4.092834   99.630402   10.948689
H   68.424644   52.669170   51.589859
H   25.093832   58.520203   76.567909
H   72.144348   58.256771   29.082443
H   47.667561   51.196629   19.349703
