100
TIME:    5.978, STEP:  5978
H   13.054857   73.809135   93.672989
H   35.376534   28.802763   55.038502
H   82.519196    3.985682   53.172626
H   82.479996   86.356110   12.487845
H   41.626648   51.920486    3.617860
H   35.318417   94.731682   70.768394
H   39.663158   65.002205   57.940464
H   50.027283    5.775567   59.314663
H    6.677284   11.533130   23.792734
H   11.480387    2.218769   41.780613
H   44.196030    6.780428   63.917297
H   27.677177   23.336643   67.408501
H   62.598312    0.088288   31.017509
H   59.085915   86.650002   12.167904
H   53.212685   36.048111   63.417233
H   61.161530   88.871193   36.815155
H   43.391975   77.368446   17.589270
H   28.903631    3.949471   92.297401
H   38.376293   29.137690   78.305756
H   31.459343   78.862343   23.342615
H    9.533714   61.089436   94.990898
H   35.497025   52.019867   10.196320
H    5.927824   46.003532   61.312912
H   63.616596    8.342501   63.096264
H   15.777019   12.073936   80.688759
H   19.295225   49.935669   28.273590
H   46.589584   93.978104   18.578779
H   28.135799   35.472527   64.376511
H   41.157005   91.463165   74.589081
H   30.215530   42.884392   58.622330
H   51.328453   58.113590   36.418602
H   43.211735   87.346375   45.850639
H   91.439201   31.102900   36.342407
H   30.687084   25.874596   19.907400
H   32.175339    7.028309   88.747070
H   92.295227   53.651497    0.631484
H   53.166458   85.607544   79.508400
H   16.911591   49.554806   44.291843
H   92.738220   51.165764   64.999672
H    0.133047   52.543491    8.370611
H   26.697334   61.300201   83.184792
H   96.420593   65.045868   85.146721
H   62.732853   99.348236   33.271576
H   97.629074   12.983419   65.232140
H   38.108578   96.031784   67.663925
H    0.960318   76.938034    7.447478
H   88.437790   49.942276   82.848381
H   56.558674   56.941437   38.462666
H   39.772079   37.351639    6.008220
H   51.254498   21.720335   65.553635
H   43.091114   92.505859   16.444809
H   95.652748    9.025387   81.617531
H   32.873936   56.671204   55.677090
H   38.254356    9.664186   95.609825
H   64.817711   82.488510   51.194813
H    1.041351    6.245447   89.121567
H   75.230339   17.054375   24.545113
H   80.921539   12.339117   59.576035
H   61.747780   91.353813   52.550591
H   64.531021   87.276871   93.582054
H   36.797901    0.568179   48.303349
H   86.747017   72.299698   24.868126
H   79.907402   99.354652   23.541046
H   53.538986   74.327820   64.840332
H   69.601562   83.391525   52.274311
H   34.107841   45.088921   99.649345
H    7.942063   55.035580   55.680313
H   67.424385   59.425632   51.985569
H   54.846233   20.245369   85.302917
H   51.497101   48.818916   89.145172
H   32.205101   88.657639   90.437935
H   81.053360   53.126831   94.302811
H   17.214497   22.610306    8.470284
H   98.612633   71.070396   47.960716
H   50.393627   37.163494   54.571182
H   66.984810   90.706474   93.686218
H    9.718242    8.412352   96.771919
H   12.837642   59.834831   44.583015
H   48.178776   35.959454   84.378960
H    6.358589   83.369423    5.911162
H   27.852365   91.126816   37.279606
H   89.877792   83.238983   86.881035
H   95.995872    7.092187   99.257370
H   61.425323   23.709614   17.419575
H   61.250267   74.958443   68.252350
H   13.705433   28.635246   56.913696
H   66.411827   68.703484    8.597631
H   52.171684   26.707693   33.595215
H   79.743271   61.326653   79.298470
H   37.803127   63.326946   37.916336
H   68.667046   96.226929   59.706219
H   20.610361   45.081772   47.429787
H   68.654816    6.887876   81.292496
H   25.018375   75.851509   29.886293
H   53.236092   14.256313   53.453831
H   87.679855   59.666779   58.677475
H   88.097069   10.745776   93.388824
H   26.738405   82.249527   58.871239
H   23.934753   62.619106   44.317459
H   10.528513   25.230076   21.860600
