100
TIME:    2.702, STEP:  2702
H   34.596588   74.234184   96.672256
H   26.109261   51.243797   48.441303
H   26.199728   68.296768   91.620277
H   81.930130   21.328074   92.057068
H   70.969482   89.334732   92.443039
H   86.120125   98.280815   46.334263
H   11.359152   43.790161    1.752785
H    7.514427   22.359583   60.106251
H   87.207619   26.507217   30.005360
H    1.003359   55.180077   13.496142
H   48.921570   74.963425   79.478760
H   52.714417   59.127945    0.598261
H   71.387108   98.232452   56.571487
H   21.293816   96.747536   62.864704
H   13.366570   28.673452   20.889166
H   92.882263   75.402252    8.751631
H    6.828352   60.685623   19.362070
H   58.885345   63.302376    5.870461
H   87.350182   91.704666    5.715461
H   19.722977   48.433681    0.297398
H    3.936176   87.224579   83.905670
H   21.423721   47.670929   89.178040
H   49.668434   72.647026   55.043228
H   67.996429   69.087952    6.398999
H   32.944084   71.879333   56.497437
H   34.269596   47.097424   35.913246
H   29.081978   30.157606   53.584660
H    4.555498   82.559944   56.087276
H   69.923080   94.238838   29.446581
H    4.600625   23.965805   98.190300
H   22.395216   64.348083   95.605309
H   36.363014   77.857414   49.126381
H   60.683933   70.791176   41.214455
H   92.266655   26.100479   57.919846
H   13.606744   54.669678   89.261803
H    7.482503   96.740532   11.351647
H   38.956009    5.582064   21.372190
H   52.311264    9.499767   13.114779
H   31.020462   22.544382   82.468552
H    8.695593   59.231857   50.622517
H   50.588223   48.894459    6.003759
H   88.780785   33.125427   29.742907
H   34.514744   79.703033   96.642235
H    6.818603   58.057869   44.921005
H   22.277468   25.284420   87.328102
H   43.228069   14.453297   94.140785
H   62.842915   71.781525   51.396049
H   56.383717   23.202936   35.762352
H   44.010818    8.670528   36.690071
H   82.552635   71.871620   94.683868
H   43.338474    8.782644   81.906296
H   36.444141   13.013405   96.679710
H   64.929634   37.675842   45.942017
H   14.122692   63.125389   51.047882
H   25.653915   95.376587   23.332960
H   96.947037    9.692278    0.644349
H   67.545509   11.581990   12.970222
H   24.859955   21.717098   43.959061
H    3.378704   52.935101    4.048807
H   80.714340   35.472904   86.759285
H   30.145342   52.915218    3.727395
H    3.015018    2.792810   73.098785
H   57.508709   22.897264   48.190598
H   28.580473   56.492706   53.783726
H   39.569210   45.040058   47.193504
H   35.356972    7.948434    5.948486
H   70.781929   41.777424   97.514114
H   93.720009   72.067322   95.373825
H   91.568901   55.637840   90.767403
H   85.126770   84.045967   96.043488
H   36.232582   11.555352   29.737274
H   51.174347   61.850983   54.450333
H   30.816702   84.654472   92.466301
H   70.729240   78.392197   42.620659
H   92.446190   32.489635    6.227519
H   89.534111   80.746086   14.119648
H   12.278688   92.355362   38.836063
H   58.925198   74.044395   63.663052
H   91.083954   45.582104   47.826828
H   67.014168   61.798885   88.141556
H   63.758251   57.235088   41.480549
H   44.058411   61.873672   60.837990
H   88.755814   52.357483   87.252106
H   36.043827   43.375214   16.631927
H   20.764439   79.873108   85.823906
H   89.103699    8.302547   29.418423
H   47.615196    6.895523   52.385132
H   99.452026   88.965881   67.644844
H   11.756542   43.728752    6.094007
H   27.445118   98.106033   20.808285
H   34.599609   19.332436   90.523026
H   78.211716   98.713188   85.008324
H   58.649448    8.595320   27.949669
H    8.385782   77.129784    9.001042
H    9.874027    7.700222   78.176201
H   17.095749   89.032722   27.887329
H   48.130081   22.742580   81.794945
H   16.785543   39.243591   12.802002
H   79.996483   48.497555   18.716789
H    7.044632    9.300127   37.444733
