100
TIME:    7.283, STEP:  7283
H   24.802485   54.134773   92.478226
H   99.338730   99.517784   37.321613
H    4.958901   97.872673   37.849789
H   82.699036   32.591766   40.956875
H   29.937002   56.521908   68.233261
H   15.077250   93.317879    0.005661
H   71.266846   53.121647   59.993237
H   47.456856   18.674397   39.493195
H   74.597832   86.062561   41.648129
H   75.835030   20.958086   92.876656
H   22.808105   59.289860   38.214149
H   77.869965   88.749924   74.517296
H   79.336937   21.155087    1.342475
H   94.471016   82.627632   11.478962
H   69.065315   19.479362    0.664241
H    8.689301   74.731140   28.488607
H   38.451637   63.683186   36.388577
H   56.811306   40.448135   47.059433
H   58.697224   83.884094   47.057674
H   96.302383   51.148457   12.193064
H   32.093170   31.171707   59.567417
H   60.608643   53.752274   99.063583
H   88.503654   35.390053   23.975492
H   42.362335   23.954073   66.175903
H   69.102486    8.581032   90.326515
H   13.267345   11.399128    5.519568
H   34.057430   39.731400   44.475269
H   18.023621   96.385536    7.508760
H   69.532631    9.862944   12.901018
H   80.256012   10.585543   62.366142
H    2.686182   75.135788   33.171227
H   25.610195   51.287952   25.040245
H   83.361946   35.622932   53.907112
H   85.825523    6.279253   64.930038
H   99.701744    8.244698   68.156525
H    5.736674   55.864731   96.529152
H   78.333054   37.817017   82.337311
H   62.970490   25.669498   36.382217
H   37.654873   22.732023   38.535187
H   77.215752   30.372980   11.045381
H   37.509644    6.082082   13.928968
H   86.442299   70.163437   51.769215
H   73.964752    7.176458   27.532665
H   14.300230   34.887413   92.828850
H   24.909843   44.541256   79.335884
H   84.114494    1.828635   12.749239
H   98.633102   20.912560   95.373482
H   56.632137   70.382523   19.208279
H   77.918526   29.271976   53.953629
H   78.647705   41.585354   74.305580
H   43.001507   66.516876   30.199520
H   59.082485   87.930420   95.953003
H   59.945278   64.238037   79.884041
H    8.036804   88.374084   53.194656
H   60.911697   96.851784   62.296154
H    2.666727    4.872714   44.696289
H   57.961193   79.398430   48.661400
H   83.748703   89.097649   25.962469
H   64.670464   46.499805   52.369377
H   78.415443   87.583511   56.464745
H   19.117762   39.878242   46.555405
H   40.430031   60.152939   65.823257
H   68.504570   10.303916   34.053284
H   43.150509   81.436661   29.405880
H   21.396793   79.163666   73.802956
H   53.941193   80.213890   76.811646
H    3.239362    0.155803   18.685514
H   77.279060   34.060539   14.372115
H   19.885124   26.476395    3.454651
H   77.938713   14.451633   86.396469
H   90.763649   99.866379   74.786537
H   73.529488    9.775352   89.887398
H   32.126526   58.064312   75.014465
H   69.878578   88.478333   70.422516
H   13.300965   39.039013   53.503620
H   97.829613   74.345726    5.876491
H   28.234909   95.437813   19.906294
H   74.148911   74.503624   16.651682
H   10.760539   32.126255   98.935158
H   42.359451   12.279763   93.484322
H   53.391624    4.628335   15.277823
H   87.807137   91.702026   77.708000
H   78.541695   28.915564   23.539055
H   51.207584   35.381588   98.228325
H   97.708069   93.326317   41.747139
H   83.672836   76.572159   47.536896
H   53.569889   73.819038   70.824883
H   73.159691   22.280603   20.064522
H    6.825510   88.666817   68.625252
H   22.423445    9.632298   84.566269
H   22.073109   66.691154   87.265427
H   17.167147   43.230255   72.294136
H   52.307789   46.046238   82.210152
H   51.139725   55.024010   17.880259
H   30.674686   97.362137   83.442383
H   95.467499    8.134585   91.272331
H   84.512260   85.636276   18.336876
H   24.219446   46.821598   32.676056
H   61.767723   68.251961   35.009876
H   91.586800   91.740921   96.145309
