100
TIME:    0.660, STEP:   660
H   72.689369   61.495949   98.541763
H   82.911110   40.529438   19.632750
H   91.104156   21.386929   15.590385
H   81.587387    5.457373    3.985726
H   89.259491   25.659431   47.809532
H   17.781883    0.495321   44.107777
H   18.380306    5.903125   42.065632
H   68.011597   45.699841   47.595566
H   37.403938   22.837204   58.543594
H   56.803810   25.861610   33.535164
H   38.863434   92.799210   76.174400
H   30.650036   56.773048   45.949181
H    1.280445   21.776657   59.529510
H   22.402363    3.042336    7.465580
H   88.529579   11.070371   19.046358
H   74.986816   54.009510   78.254379
H   71.003532   25.643845   33.446114
H   15.248008   62.604858   76.665329
H   55.541550    6.039598   98.135254
H   74.783791   91.694214   61.214561
H   25.111206   90.511993   39.329971
H   25.633045   44.971062   63.058880
H   76.932076   89.254478   13.466219
H   57.720383   44.597416   58.058487
H    5.979049   33.831547   41.432327
H   43.632710    7.944205   27.311750
H    5.165834   15.041188   13.063101
H   76.851616   87.245758   88.589859
H   25.522293    8.972564   25.973297
H   26.300291   74.504807   35.856258
H   42.064274   81.228279   57.184929
H    7.430005   34.276726   38.164558
H   16.846985   20.193403   57.254967
H    5.988464   13.237546   43.946007
H   64.366493    9.029258   64.916443
H   29.939880   36.332104   18.373365
H   43.101475   80.365089   60.470715
H   36.711288   46.874325   69.014717
H   21.048710   66.418938   78.869247
H    1.029198   50.396694   89.961540
H   90.138260   78.826637   57.891865
H   72.304131   41.479485   33.807941
H   16.925802   67.457764   49.145103
H   37.213425   23.832174   45.263680
H   99.405754    5.851867   12.585344
H   69.522179   75.611382   85.906487
H   43.049061   61.345676   33.262886
H   56.274662    2.178689    9.414947
H   84.322502   77.787643   18.145933
H   39.732098   40.795017   37.503273
H   43.494267    5.924528   60.375813
H   37.206993    2.495488   30.734184
H   22.570070   25.835632   64.539772
H   61.405636   96.434181   60.940388
H   88.216995   16.363585    6.006617
H   94.392044   11.838316   70.158844
H   38.092506   70.502907   18.759071
H   76.913757   14.558250   96.554520
H   42.329254   66.655151   60.815983
H   15.466155   78.517944   44.837608
H    1.333556   47.877144   62.935684
H   75.486450   21.802170   65.493866
H   18.999992   62.146553   88.279396
H   88.360359   45.384720    9.220068
H   58.520363    8.130548   57.026443
H   60.800484    9.462513   85.210213
H   34.616051   71.178741   98.926376
H   34.775185   55.283432   97.754417
H   89.796104    2.362934   18.837780
H   43.755974   81.339989    0.342883
H    1.073419   50.496952   54.231754
H   19.547323   29.621529    4.943234
H   63.958603   85.660286   44.825764
H   15.663863    7.613005   63.982841
H   93.993576   29.582800   51.430592
H   41.262341   49.873100   51.519314
H   26.878345   69.340935    2.712639
H   62.988327    7.564557   50.890476
H   93.187279   51.569187   25.047691
H   67.157883   73.010445   64.061584
H   23.797543   36.109661   19.435276
H   90.843361   48.537857   31.589527
H   59.555309   18.273279   92.761688
H   95.571136   68.638649    3.146400
H   20.192999    7.599668   83.772926
H   36.102276   33.296886   87.615562
H   11.234640   55.365547   55.014462
H   66.579865   52.452736   88.879585
H   69.379585   57.424248   22.800636
H    7.983315   82.127792   47.806957
H   51.032475    9.070307   47.399731
H   27.120272   45.144096   46.098595
H   27.630318   47.405945   69.974174
H   11.018755   53.267471   71.318016
H   45.181431   90.610474   31.251705
H   48.434891   69.668449   33.359230
H   10.214920    5.556511   99.231567
H    9.288451   21.857178   45.475830
H   77.271233   39.695293   89.766792
H   80.229691   61.752499   34.118881
