100
TIME:    4.609, STEP:  4609
H    5.634908   99.352638   94.926346
H   73.186134   54.619972   68.719177
H   58.979202    5.494307   69.243523
H   82.250214   42.760124   87.528084
H   53.888657   42.189178   40.734985
H   56.552372   96.214821   35.190739
H   11.413193   72.560242   50.882809
H   57.627983   87.339111   85.010857
H   40.329918   43.156891    9.966307
H   48.888069   82.561775   88.172760
H   71.537079   51.695591   95.787506
H   79.928535   54.715950   64.855370
H   49.957260   82.874535   67.048584
H   26.870155   90.869637    7.986247
H   36.563927   58.332855   29.221394
H   16.206188    8.609083   50.454041
H   53.478798   86.820343   92.963799
H   99.628593   70.558174   39.754345
H   17.055119   71.707932    6.183403
H   68.340599    7.938780   30.134745
H   90.772133   97.376190   32.148376
H    4.249664   50.202499   26.779327
H   24.207237   57.137520    0.480351
H   90.815430   91.959381   64.769745
H   64.739777   20.642525   70.578346
H   25.535898   90.401840   57.008099
H   64.640724   50.887501   91.416725
H   43.647594   71.572250   19.119967
H   11.389373   67.256523   39.301643
H   77.723022   76.766808   49.790627
H   97.447411   35.353634   44.729530
H   56.772259   25.170738   72.585838
H   95.008644   31.265429   13.012074
H   72.842606   51.335358   77.581612
H   66.203979   10.515112    5.385292
H   73.290222   46.425541    4.937397
H   21.862413   35.745102   71.636520
H   73.492332   74.607079   47.685139
H   50.526524   80.995659   97.666306
H   29.077486   80.704414    0.660432
H   20.259109   14.330647   50.931744
H   17.390278   18.711924   19.335810
H   50.940853   91.138748   34.386986
H   85.043457   90.010742   31.378664
H   56.858273   50.042526   50.515400
H   18.625278   50.826435    1.883940
H   77.742477   75.490746   69.709023
H   56.485561   42.841171   53.756721
H   99.758347   50.731602   60.621239
H   22.542179    0.883276   61.303497
H   43.192982   24.674507    2.013006
H   29.120611   36.058414   71.490570
H    4.475854   48.733276   35.185337
H   69.955803   32.004532   35.198021
H   73.819427   62.510387   39.549038
H   99.333115    7.685502   35.725571
H   88.442596   56.556007   94.341606
H   82.860001   41.624733   94.837143
H   53.777855   33.511215   57.648590
H   54.871281   82.051285   32.519661
H   50.440155   64.230247   55.041046
H   35.332207   85.042160   86.811447
H   86.965569   92.772873   17.417503
H   59.532440   66.870346    2.002926
H   15.260777   92.730713   24.785414
H   18.206989   13.145702   18.703375
H   17.779825    7.708678   89.584213
H   61.990608   81.130569   86.539452
H   86.613937   18.612976   71.165192
H   23.765028   79.962402   92.027893
H   75.675697   81.803391    6.858661
H   93.934296   98.561020   94.071007
H    6.475580   90.326973   43.574722
H   28.746807   57.714001   29.302238
H   84.389412   35.210346   50.791714
H   34.617828    2.965879   85.802139
H   85.422440   27.068542   72.561241
H   48.519527   49.349873   68.978996
H   82.530907   39.980640   69.108894
H   73.491089   57.939007   23.851646
H    1.062989   76.963882   55.457851
H   87.143944   74.327835    1.375326
H    9.403215   84.198059   68.882553
H   67.240585    6.560888   42.455643
H   27.909651   60.590546    0.961649
H   45.216915   78.351768   61.846161
H   74.979408   68.241074   43.318497
H   30.143812   36.286400   47.811539
H   51.333847   37.549965   90.495125
H   58.841915   19.648224   88.978073
H   12.641990   22.304966   30.795450
H   19.317411   42.120644   21.349104
H   80.899406   65.812065   75.425583
H   92.704788   92.802490   37.579884
H   76.903648   36.883698   21.996231
H   74.606079   13.727432   29.388283
H   96.761955   32.181545   72.121063
H   23.783735   55.480560   82.282219
H   89.151093   56.717884   58.985878
H   25.493967   60.356411   53.741283
