100
TIME:    7.723, STEP:  7723
H   95.047600   13.785144   92.075394
H   87.186630   23.361591   65.066544
H   12.522242   29.527016   32.683468
H   82.772888   14.462700   16.838364
H   25.994284   91.789848   56.302719
H    8.253444   92.841194   43.580803
H   48.207012   82.831741   94.401810
H   12.873726   56.738667   99.092903
H   63.781792   43.758484   13.951164
H   63.817207   27.275835   10.105267
H   81.880386   76.994324   95.831284
H   61.077995   10.804577   43.197105
H   51.279686   94.523346   57.615612
H   72.684517   81.271431   44.964375
H   74.409554   80.176407   79.502228
H   90.997574   36.247253   91.964142
H    3.069256   92.787766   76.443512
H   66.220001   19.037613   31.808861
H   65.549484    2.340893   70.238205
H   84.445694   41.806110   42.150337
H    5.982941   87.368103   47.626804
H    2.791870   54.336380   61.593491
H   82.629021   31.811651   11.385621
H    1.479481   29.217745   33.496376
H   53.365181   73.688232   93.576027
H   11.192760   98.429428   64.114830
H   96.115753   21.440439   53.206654
H   80.897118   16.923223   22.053164
H   79.099892   49.782795   92.102348
H   97.127960   99.694839   97.345390
H   20.003553   14.592323   98.359901
H   53.392178   39.132496   84.307289
H   14.354317    3.431369   93.545784
H    4.416429   65.955849   46.393051
H   88.751427   74.930565   94.924713
H   43.984623   90.327011   95.146095
H   20.535526   21.702662   17.007353
H   44.785980   17.616215   67.430870
H   19.080959   13.146299   95.896614
H   35.773338   89.181839   45.664421
H    7.439596   21.178267   24.295012
H   49.361610   71.888901   74.231987
H   77.751373    9.815847   59.312756
H   86.204071   42.272667   35.849514
H   86.742607   27.182552   16.988007
H   78.434563   10.219546   14.536806
H    2.071862   44.841560   99.596504
H   56.658993   74.914383   46.433010
H   90.782295   92.831734   36.400223
H   87.885986   48.282436   43.540405
H   42.971294   24.037924   34.838150
H   80.466156   47.102001   67.069946
H   69.070915   66.789307   54.331062
H   97.847809   81.196960   72.611160
H   25.878445   35.411560   66.037308
H    3.214746    4.409877   29.717651
H   85.856583   66.702507   90.508934
H   50.985031   47.545525   14.627885
H   99.370415   65.093666   18.591244
H   49.379662   21.403301   43.950096
H   46.873669   19.416698   12.250808
H   24.813576   56.057480   45.913589
H   98.374565   80.279205    3.881165
H   73.365227   83.833511   17.458553
H   38.861900   44.021374   14.778289
H   26.911480   58.340111    2.827965
H   67.937714   15.367115   39.929241
H   46.885384   59.224113   35.406662
H   41.815971   94.860817   75.860321
H   86.874870   36.550388   85.463242
H   76.792091   69.929245   69.509438
H   37.297222   95.165428   22.139330
H    3.436545   36.301311   63.734959
H   60.191792   60.629620   44.278717
H   34.495163   39.686901   86.864822
H    8.231631    2.544154   76.268776
H   68.196007   57.356171   27.709486
H   94.820908   45.733898   40.952526
H   31.859076   30.833836    3.845005
H   20.781956   88.310692   55.577827
H   62.005516    9.180337   41.576065
H   20.824574   94.555420   40.897976
H    6.371318   36.273960   65.443542
H   81.478996   73.032959   58.039616
H   76.284119   65.799461   99.094887
H   73.548325   92.732437   78.091705
H   82.956490   41.827461   91.805717
H   80.236107   87.072021   15.502449
H   15.957994   64.167915   65.026619
H   83.522003   91.529922    0.296820
H   40.079700   90.451530   96.557419
H   49.722691   76.322906   80.679756
H   80.512741   59.249058   16.236025
H   93.664345   81.718346   47.548779
H   23.066196   57.951218   93.553467
H   31.809753   90.759644   68.545891
H   49.586723   10.886769   93.031624
H   23.370142   68.592018   23.842413
H   40.807030   70.151985   98.154289
H   18.917093   80.448196   53.759853
