100
TIME:    3.338, STEP:  3338
H   91.587311   15.909601   96.089981
H    8.417273   85.725998   88.560074
H   37.131950   14.053187   84.157448
H   82.036880   95.123711   57.197231
H   65.272888   40.312923   75.197983
H   76.260262   97.591789    9.318947
H   78.024986   86.735252   51.488884
H   57.526077   77.380936    1.709179
H   71.573524   65.358292   89.971626
H   83.622581   64.312096   38.402969
H   89.762405    0.554411   18.216764
H   28.438385   91.007523   55.326378
H   30.932575   59.753754   93.359154
H   89.803032   94.787209   11.262707
H   21.103554   71.863754   90.317543
H   67.310669   19.775543   55.958351
H   55.685066    2.754392   77.259659
H   72.473595   32.373848   83.820984
H   97.258568   18.385752   39.220600
H    2.589523   34.929745   43.599174
H   66.195068   23.908760   66.641205
H   82.397659   48.515228   35.016724
H   41.176918   67.474480   36.847122
H    8.905182   76.715759   59.165707
H   10.198543   21.438972   61.191689
H   31.352827   28.148718   76.299843
H   74.240036    3.719409   66.204628
H   50.890614   12.246246   77.109245
H   83.752121   51.941299   99.384010
H   28.986401    8.224360   48.749756
H   47.427273   21.380716   45.287010
H   76.520607   60.283432   90.248695
H    5.481121   24.258072   98.510353
H   19.139679   67.814980   31.125553
H   97.796677    6.592902   27.989326
H   62.781277   46.702816    9.164784
H   99.957069   82.290512   71.486687
H   26.026382   97.860390   57.993732
H    4.173162    8.688654   20.835142
H   48.790768   99.690353    0.660715
H    7.123521   70.716721   20.987532
H   31.620750   61.671478   59.623154
H   39.992985   83.516937   42.580685
H   66.205200   68.716217    7.106254
H   67.107857    0.192474   41.752865
H   35.022839   26.584034   96.722206
H   67.812790    6.369044   57.505089
H   56.417683   29.751108   75.114464
H   62.599960   55.995483   11.319175
H   95.886742   81.547096   50.199535
H   43.289951   47.381378   88.612167
H   67.353256   53.998352   54.929508
H   78.118172   41.363586    9.003006
H   99.395775   52.746330   79.113556
H   75.016617   51.118248   28.738390
H   97.742813    9.023397   78.993408
H    7.867364   93.229912   73.458992
H   77.501945   61.654755   27.577057
H   53.536880   79.807114   55.223942
H   38.744911   84.357758   68.669930
H   70.264229   23.340347   54.138187
H   80.442467   96.872452   44.321358
H    0.676636   79.503838    4.573807
H   72.254875   59.952393   36.514408
H   64.815544   94.243172    6.422250
H   96.286690   76.331001   43.552414
H   19.754612   63.763172   28.221544
H   49.787331    8.440585   25.778303
H   23.267159    9.938927   50.879940
H   98.014465   16.033972   94.704254
H   16.035412   68.282234   22.107040
H   98.734299   40.743500    1.014002
H   89.347275   53.193859   76.162590
H   56.732235   38.144142    4.822191
H   23.110392   33.397015   54.441196
H    4.567734   21.506758   71.323517
H   70.024513   37.230934   50.083683
H   88.805634   32.456547   98.784012
H   21.582563   43.713970   54.925735
H   35.823616   27.158691   33.349442
H   76.199631   63.814800   79.493423
H   91.777908   66.027237    7.655725
H   28.994078   62.974304   47.827854
H   79.798721   97.798553   58.541229
H   89.795975   40.091076   24.170647
H   74.469177   31.663921   73.584015
H   90.092186   60.653130   82.711975
H    9.688074   38.045898   61.028496
H   24.956821    8.318064    0.890559
H   71.215210   71.942459   43.542480
H   60.627319   53.673023    3.954262
H   25.270983   46.541740   97.129356
H   99.427002   27.673460   77.137108
H   69.858894   15.706608   51.882072
H   98.876961   50.732571   92.791313
H   69.626694   63.917244   95.036705
H   97.647980   59.241543   45.218346
H   19.119497   44.658752    2.625526
H   49.698753   51.239101   65.445396
H   46.546223   92.975899   76.180038
