100
TIME:    1.092, STEP:  1092
H   43.474525   21.879250   98.146255
H   70.894264   63.953388   46.883236
H   98.526520   52.466686   10.517998
H   81.659897   87.659019   80.307610
H   85.390106   60.286140   36.095909
H   11.082970    0.025165   86.890068
H   95.739265   35.074863   75.848595
H   34.057251   83.073715    7.929596
H   26.784554   81.301987   31.349176
H   44.997902   32.062859   50.453011
H   98.679855   10.181447   34.562721
H   14.160656   78.427101   15.199350
H   73.799347   95.639702   16.593248
H    1.012555    1.710403   40.342167
H   93.783241   72.482635   98.280075
H   57.617432   16.222034   42.395004
H   36.271355   54.212692   72.779366
H   24.479752   41.596802   61.688766
H   62.268478   24.163698   20.893816
H   63.095398   82.624863   90.681114
H   99.475815   47.505844   27.605843
H   67.055901   45.541252   26.273357
H   71.164253   85.741051    1.105776
H   17.582932   49.778568   25.972916
H   90.528313   99.570625   44.619461
H   41.651875   95.071762   86.819717
H   67.915344   97.083206   21.635733
H   40.401115    7.410225    2.867975
H   34.915604   48.166569    5.553509
H   42.864910   63.812912   70.199516
H   59.057926   19.969030   23.000305
H   34.706608   22.342278   98.172188
H   47.277195   88.586693   96.172935
H   24.241600   73.647469   25.746622
H   53.628456   76.373268   91.224304
H   67.500031   70.266678   16.886915
H   84.535851   64.544777   94.510750
H   18.857407   38.967464   99.501778
H    1.627128   57.197014   37.464058
H   60.338379    9.953499   23.950010
H   60.613983   93.651588   68.071579
H   33.478447   60.869255   54.104084
H   20.646872   70.048340   80.349098
H    9.628092   31.071615   87.503914
H   61.931572   88.806290   49.554573
H   63.999172   83.745003   87.606056
H   47.610584   84.648056   36.954292
H   56.297733    6.626588   36.144680
H   96.952385   42.009399    0.912643
H   48.792522   47.370335    7.289762
H   43.461308   64.218010   64.930740
H   58.201866   62.410511    2.373048
H   31.531618   28.340515   39.448166
H   51.402584   89.387550   80.003860
H   53.826614   54.236073    9.672480
H   94.932571   11.384306   55.452545
H   65.478302   58.037819   59.845741
H   44.745789   73.761681   85.427567
H   76.400154   84.907837   27.649574
H   86.958069   11.721983   32.550499
H   28.585253   27.788643   29.254898
H   60.153931   17.781174   45.946144
H   48.303093   32.687813   58.642677
H   18.024534   47.734695   97.490669
H   75.666679   73.628593   97.256752
H   34.261909   87.986580   10.753082
H   99.954880   86.115753   19.784264
H    4.933814   79.989487   18.406515
H   11.326336   71.322174   91.743660
H   52.506584    3.066847   99.433685
H   87.355782   21.101446   49.050602
H   83.926529   15.284328   36.572601
H   35.791855   64.289680   33.748249
H    6.156020   80.276245   38.307793
H   14.822045   30.197485   84.178642
H   51.476330   77.560326   22.452244
H   66.102440   31.899523   10.356617
H   83.284470   79.318184   74.748001
H   13.894167   50.303562   29.864647
H   45.971848   49.482285   26.844299
H   32.251522   40.578899   45.254543
H   23.256424   51.359146   95.464676
H   86.890953   25.483057   33.907383
H   25.289419    5.605446   63.687904
H   99.157501   80.579163   41.895241
H   26.158550   49.166637   17.615242
H   40.086937   23.955635   75.613831
H   73.534210   17.866253   84.390572
H   78.344429   33.370781   19.265785
H   69.790115   64.349716   63.251537
H   68.711678   32.396999   56.522778
H   59.083897   77.635063   54.328453
H   55.348564   60.348938    3.394668
H   52.774391   79.471214    0.447139
H   37.712925   51.915596   41.178825
H   84.116287   52.608879   11.045815
H   75.924637   30.347914   74.387085
H   10.874602   25.535400   38.564331
H   56.691643   41.557476   53.578777
H    7.058334   50.655209   92.510445
