200
TIME:    0.320, STEP:   320
H   11.929421   62.209492   16.707527
H   28.677328   34.046074   93.144859
H   16.460903   72.639740   49.288628
H   20.539192   77.908821   42.407715
H   14.360763   85.756836   52.508293
H   87.016052   50.643669   63.181374
H    4.518279   55.247368   51.199825
H    4.681382   92.340973   22.232670
H   90.677376   86.306885   45.767818
H    8.045040   73.778282   92.916939
H   14.982143   96.303169   95.489746
H   31.108612   44.158157   16.554140
H   13.137675   89.662910   58.012871
H    0.622253   53.544460   46.120785
H   15.759418   72.560432   42.781754
H   26.968540   22.670162   52.597237
H   87.970840   11.465294   11.547924
H   34.662460   87.012863   42.096111
H   67.687164   26.805645   43.661507
H   90.310768   78.606041   34.369526
H   59.045158   80.751785   22.175312
H   88.248024   51.872231   67.491806
H   92.609581   61.959793   47.216652
H   10.302720   88.788551   91.335228
H    6.723672   15.921513   42.555737
H   18.594870   65.886551    4.314337
H    0.444887   60.401981   52.298416
H   96.346222   73.429604    0.941771
H   14.438039   54.098091   37.869919
H   89.434311   22.907442   95.858566
H   13.257046   54.791538   16.292622
H   30.471279   65.381332   95.572731
H   25.190315   10.706959   74.156326
H   93.778847   63.665199   39.688614
H   44.149326   86.495346   33.610569
H   30.448036   48.097916   80.393837
H   88.560608   72.702316   86.555519
H   28.957809   46.824711   11.570488
H   50.109436   43.535931   46.209892
H   89.315536   39.359509   60.571381
H   80.528114    1.486747    4.179654
H   17.321245   41.429337   37.459007
H   75.261429   85.944160   53.298862
H   37.103043   67.119392   21.609510
H   31.510313   78.735947   47.250877
H   39.933998   11.756512   43.557934
H   81.481720   22.292809   97.933159
H   88.168190   65.549385   44.771683
H   90.174240   25.716274   61.224010
H   59.254543   18.162527    2.327837
H   76.305161   69.483543   24.698261
H   18.079950   37.074932   65.261696
H   54.334053   92.132805    8.974828
H   21.215950   83.871933   82.887856
H   73.812668   74.605759   88.186073
H    4.280111   70.379234   81.267853
H    5.202174   17.048195   48.796436
H   68.282700   60.439137    3.859539
H   26.493082   76.022873    9.061376
H   41.253010   95.539955   65.515350
H   50.160423   13.815584   39.899162
H   91.374069   16.614397   49.679279
H   73.651291   26.863726   82.185944
H   26.064362   65.266472    5.453660
H   72.634384   77.271698   21.200933
H   35.601578   19.669188   34.301285
H   83.186867   21.474518   87.487953
H   96.893425   91.631813   88.855415
H   19.368097    6.934333   60.967232
H   44.776455   43.024334   50.978321
H   58.430069   77.975800   75.421234
H   29.892117   21.719019   44.204830
H   80.032852   27.046154   96.816925
H   10.471641    7.206252   62.901424
H   80.119156    2.166594   63.851120
H   55.335854   16.252201   62.354706
H   95.089447   32.928406   71.013985
H   23.592136    7.426695   45.231941
H   12.138775   33.257671   33.166607
H   67.070648   90.220779   90.467682
H   46.763485   28.749968   99.946136
H   30.154068   67.151649   85.384087
H   10.687594   14.543834   87.939018
H   22.065271   64.475563   96.458954
H   36.059402    0.169804   55.515045
H   26.921089   82.975250   26.117477
H   39.440727    2.950811    1.954725
H   74.666206   15.566885   14.459615
H   68.134827   72.249641   77.457466
H   23.043434   89.632973   53.985378
H   37.889244   35.583408   80.398651
H   83.498177   89.237366    0.113447
H   51.060047   15.959846   93.451385
H   56.440525   91.559502   71.301323
H   27.152031   55.844048   71.271690
H   65.959084   29.497932   25.300238
H   80.390800   11.512144    1.774634
H    4.695444   29.681843   49.351017
H   35.205162   68.976639   53.164757
H   68.595421   99.227432   27.269938
H   13.435508   82.638306   72.706886
H   93.547157   77.866898   65.423317
H   24.837721   34.246368   31.620853
H   25.720049   68.087189   93.339249
H   25.232691   26.421402   27.681225
H   90.590218   22.856104   40.145348
H   69.447975   31.090128   55.886917
H   64.280006   37.345970   15.648182
H   74.829643   39.079826    3.000996
H    6.936618   26.944971    5.928805
H   48.247093   95.371590    0.852137
H   89.206238   65.357117   91.422417
H   55.704575   81.203003   92.195259
H   62.953178   17.672646   72.890991
H   61.180580   85.299866   23.967636
H   10.773646    3.456923   82.543396
H   29.285755    9.569190   85.112717
H   40.365231   30.934162   32.379387
H   21.900518   60.717152   79.585800
H   72.893837   48.271542   52.327072
H   41.389534   22.291050   84.898369
H   14.837254   25.584888   50.541374
H   34.165108   18.448544   26.402349
H    2.898628   64.439796   14.361902
H   74.522575    6.971333   90.167259
H   50.653255   64.541382   23.986738
H   93.398109   49.563461   67.965164
H   73.678795   88.197411   35.678234
H   93.452217   49.587856   83.067146
H   71.622757   23.770164   67.864525
H   51.838326   82.329254    6.468594
H   78.629326   86.844833   11.213582
H   92.176521   86.486946   97.970245
H   96.997833   15.054119   50.691895
H    8.378152   99.923615   52.740738
H   60.227341    1.524178   82.503014
H   69.025162   86.768379   59.321205
H   91.900719   61.723087   81.934334
H   48.404297   45.452408   71.531166
H   43.491280    5.253032   93.234589
H   54.578228   60.716064   17.494141
H   53.555435   43.441551   48.111820
H   52.433784   58.233463   96.685883
H   54.047310   23.631735   79.450111
H   44.062313   67.113876   51.684513
H   48.871346   63.354210   26.014687
H   46.623344   96.427452   46.709080
H   40.467995   70.440788   68.365990
H   67.323944   61.452202   97.149170
H   12.012106   89.548210   87.003159
H   73.400398   62.668591   50.740253
H   37.154984    4.896147   45.645309
H   79.892181   28.847256    0.656088
H   12.024683    2.979026   73.975594
H   16.784840   55.991772   62.200661
H   65.876976   43.727268   56.522202
H   60.148663   63.282574   81.703049
H   47.183456   35.376328   11.598370
H    8.720381    1.432894   99.638191
H   62.782764   53.679657   81.311142
H   54.741776   81.159264   81.288811
H   39.848003   22.641720   34.850922
H   68.662956   31.082050   37.198788
H   14.211157   22.529819   67.775940
H   58.188194   24.802900   10.610601
H   13.292022   61.893826   61.864506
H   73.522270   96.273018   53.069782
H   23.702099   34.572395   51.320820
H   95.159996   27.910048   36.668030
H   30.123772    9.856000   89.502472
H   77.836670    6.585205   35.969360
H   43.399269   62.475761   57.703781
H   39.218658   74.016739   88.173050
H   70.240440   72.626556   76.097000
H   67.719604   94.434738   95.469826
H    3.377334   48.092979   23.363497
H   34.595905   55.420235   90.254524
H    2.439021    9.277153   65.903152
H   73.555672   19.519823   68.199173
H   82.494987   55.313255   87.513542
H   79.957245   88.056236   39.859253
H   20.841284   30.203701   72.536697
H   61.952114   90.082748    7.653396
H   53.222885   25.368496   80.133400
H   86.557510   84.864532   78.067245
H    0.935211   36.898819   84.354591
H   34.137634    3.154225    1.037709
H   86.577667   70.613228   28.325771
H    4.301636   61.530155   67.457718
H   51.068344   57.838131   66.713760
H   51.641987   28.377556   78.730171
H   46.997093   87.103271   23.605406
H    5.877471   19.427254   59.638794
H   33.705860   66.723877   34.925526
H   82.149246   50.682034   21.554596
H   75.523453   10.579750   28.470333
H    9.993049   87.740807    6.166974
H   26.584509   95.816216   44.710548
H   10.846492   11.835741   74.439186
H    7.173347   32.282475   96.637344
