100
TIME:    3.107, STEP:  3107
H    7.208836   37.093529   96.301468
H   14.843388   73.202454   73.988632
H   33.161285   97.434570   86.868004
H   81.998108    4.641043   69.859192
H   67.341934   21.797253   81.461517
H   79.841438   97.842049   86.442589
H   90.132607   71.138100   33.424385
H   75.682220   57.396015   22.919247
H   77.251945   87.567932    4.511751
H   89.935463   60.995277   29.356623
H   11.249451   91.259583   40.467487
H   37.255623   79.428619   71.769478
H   45.625687   73.729507   16.318695
H    1.240899   95.499214   93.683525
H   18.293423   92.497818    1.420750
H   76.598465   39.979584   75.133156
H   74.260658   87.474716   56.230816
H   67.538902   43.607323   91.829285
H   93.659767    8.694369   27.051294
H    8.812523   39.834476   27.871607
H   79.902939   46.906189   72.911789
H   60.251465   48.208572   54.688522
H   44.261101   69.353188   43.456085
H   30.367569   73.945282   76.321312
H   18.460056   39.759018   59.485695
H   32.412563   35.031345   97.952568
H   94.158569   13.322137   61.621502
H   70.381462    1.463969   69.474571
H   78.729309   30.983000   10.303076
H   20.129509   13.941995   30.385727
H   38.335102    0.666785   63.562996
H   61.935066   66.665779   11.633476
H   89.210297   41.158989   77.700050
H    9.378980   88.984810   40.857391
H    3.538899   24.054901   13.923691
H   42.696133   28.555651    9.959645
H   77.800301   90.749985   53.284725
H   35.573250    2.087394   41.693386
H   13.924113   13.721159   43.220581
H   70.548004   21.316072   82.486916
H   22.910143   62.789761   15.545308
H   52.381706   51.303337   48.770355
H   38.003246   82.131699   25.895813
H   80.956406   64.846008   84.519737
H   87.146233    9.306198   21.985449
H   38.003040   22.178059   95.784615
H   66.008102   93.806366   55.286240
H   56.405346   27.372763   60.821480
H   55.848244   75.127251   20.534056
H   91.043694   78.032890   66.355621
H   43.307575   69.682663   86.176544
H   56.126835   75.433365   70.094170
H   73.327995   40.024170   22.419201
H    4.744831   56.516083   68.919891
H   93.408920   30.873672   26.774206
H   97.453781    9.266607   86.857193
H   93.222618   99.895271   51.489037
H   94.702873   83.469620   33.527542
H   35.319054   70.046997   72.957985
H   53.987823   66.603439   75.240120
H   55.692787   34.082249   72.148849
H   88.641106   99.022568   54.774094
H   84.994850   95.266655   20.414169
H   56.392517   58.695808   42.786755
H   55.645985   12.692689   84.910255
H   10.477230   87.814735   29.894028
H   38.288490   55.777782   17.068258
H   65.744011   95.229248   14.735168
H   11.753626   26.537117   65.368385
H   93.333557    4.415044   95.190674
H   23.371361   83.999229   24.878399
H   17.781088   48.409897   84.102051
H    4.408884   64.619530   82.084221
H   61.817196   52.763168   18.550301
H   11.973126   33.067448   36.930088
H   99.106636    6.701780   86.867798
H   49.050816   57.253448   45.998463
H   77.952835   47.561993   86.027832
H   10.505723   44.392490   52.347359
H   47.152260   39.740055   53.250351
H   71.680862   61.424999   65.686859
H   74.446564   64.518631   26.972403
H   14.378626   59.118195   25.826176
H   63.905499   78.031586   79.640106
H    1.043601   54.540913   46.563576
H   79.784546   23.178894   57.542736
H   74.664223   77.448708   71.697037
H    5.970312   56.540421   63.430634
H   20.162239   21.179369    2.780470
H   91.637787   81.445267   35.285683
H   51.173859   41.200588   99.075882
H    8.178240   29.169863   92.726906
H   84.619400   20.741980   59.273521
H   47.531635    1.694644   36.307831
H    2.871041   71.424164   87.482994
H   50.547058   73.039375    6.968340
H   15.983481   45.984844   58.503242
H   18.271788   42.691925    6.321699
H   60.703117   50.243351   84.792915
H   32.198605   98.904579   98.431976
