100
TIME:    0.252, STEP:   252
H    0.281152   98.911720   98.915298
H   94.260353   18.407776   93.896637
H   84.094147   92.034019   20.380974
H   81.518906   22.268011   26.349936
H   92.913910   92.956436   58.872398
H   24.108635    0.939380    3.701464
H   39.763073   78.354332   10.159360
H    0.079590   10.403757   85.056282
H   47.433357   62.064621   84.224800
H   67.953835   20.004890   17.557199
H   76.814606   76.382339   15.475899
H   46.223339   36.321999   74.991539
H   27.233013   46.461105    0.082631
H   42.604389    4.300293   76.417854
H   83.567787   47.512627   38.659039
H   91.391235   89.695442   12.121479
H    3.806028   98.662270   96.299065
H    6.529788   82.445801   90.809860
H   49.188339   88.924500   76.638306
H   85.827980    0.248217   33.379967
H   49.322510   31.130043   50.402176
H   86.511147   44.432549   97.797737
H   82.379463   92.572716   25.140579
H   95.627975   39.704105   88.359024
H   20.570261   66.188820   38.419266
H   45.502674   20.101524   65.552361
H   40.348545   32.001286    4.966872
H   11.278175   68.201691   75.105240
H   16.650833   71.955437   45.259674
H   10.656684   84.602707    3.422273
H   26.014711   44.640511   89.470818
H   81.668854   45.548149   75.935188
H   88.108337   50.044472   20.499105
H   88.749550   50.628357   61.134850
H   74.507973   39.870987   40.073128
H   94.465202    4.281443   19.777235
H    3.969482   95.306496   28.321789
H   53.573288   54.341915   40.223949
H   39.391468   75.128532   17.973328
H   39.457867   88.591774   57.861824
H   18.020649   64.825294   48.276447
H    8.972855   23.166925   14.639419
H   13.412032   65.011108   19.675640
H   63.267502   16.994925    5.371162
H   34.796532   21.949184   77.671692
H   74.732994   67.941460   84.306511
H   38.740955   39.335117   29.776556
H   56.252872   97.977158   84.170288
H   72.394279   11.579128   34.421402
H   31.175032   34.584995   66.038467
H   43.525394   45.314842   56.073933
H   17.379648   40.355232   57.519768
H   14.106560   23.469910   88.234352
H   70.850708    3.090430   42.935993
H   20.697502   80.596802    2.544494
H   93.881546   12.267200   84.048126
H   12.228197   82.275490   79.954689
H    7.294894   53.088402    7.063841
H   10.152313   49.416504   92.137222
H   42.388718   47.157997   56.442101
H   75.596939   66.850082   94.748322
H   89.967163   25.599777   83.952728
H   91.325752   89.968697   16.269989
H   60.344818   43.165298   20.298498
H   42.324501   40.717426   19.029112
H   85.864693   29.745472   61.086071
H   67.350182   57.073093   79.228622
H   62.958412   31.949932   78.249657
H   69.463341   31.679207   44.428051
H   35.491508   60.819977    1.200847
H   14.030218   78.258354   59.125065
H   53.187855   43.162178   75.072578
H   90.560532    5.842731   55.287861
H   24.644241   33.432400   88.231499
H   74.320724   29.002264   20.501301
H   31.615797   23.723021   78.972733
H   89.834900    4.702445   95.491882
H   43.819748   34.242886   28.356968
H   73.632713   52.762981   20.498344
H   87.166916   95.229561   99.211243
H   15.813248   31.888674   95.050415
H   60.231770   45.873306   65.708679
H   33.740917   11.463527   53.901581
H   67.506195   33.725559   40.412758
H   40.059769   33.121201   23.323772
H   45.494419   18.309359   59.283184
H   83.985222   85.030464   35.559505
H   60.011871   85.118385   93.119209
H   60.912788   80.141411   26.139107
H   44.055397   98.918198   33.220409
H   34.335453   87.038727   38.783520
H   96.932076   14.459074   38.325951
H    1.453268   35.182007   38.410454
H   71.585182   28.517874   43.809437
H   52.235020   27.156902   21.877529
H   14.735794   85.780266   54.432838
H   42.599510   82.142235   22.696236
H    7.790474   18.383301   52.003357
H   96.707512   37.936565   23.943165
H   54.891552   72.230827   73.414780
