100
TIME:    8.014, STEP:  8014
H   75.368156   87.099266   91.808975
H   79.149673   39.131344   83.413895
H   17.524248   50.462936   29.267540
H   82.821732    2.472759    0.887239
H   23.386713   15.114690   48.412292
H    3.740426   92.525932   72.399971
H   32.956776    2.480360   17.158405
H   90.001694   81.914574   72.375572
H   56.628456   15.779466   95.633957
H   55.869057   31.454165   21.500206
H   54.812271   88.703415   67.799622
H   49.970566   25.390789   22.483582
H   32.723640   76.908646   28.697981
H   58.275719   80.374489   67.110100
H   77.944038   54.182846   65.506378
H   79.297363   10.795296   67.808868
H   79.668770   12.035351    2.934392
H   72.440872    4.877847   21.721592
H   70.083038   14.549390   85.570587
H   76.604111   35.627422   61.962990
H   88.714607   58.399105   39.729717
H   30.690325   54.722687   36.812134
H   78.743752   29.446077    3.059489
H   74.442383   32.698944   11.884107
H   42.957100   50.610664   95.725136
H    9.820705   89.850754   36.729240
H   71.023575    9.343625   58.981274
H   56.342911   30.506124   31.671980
H   85.427330   76.184860   78.346275
H    8.285994   92.492661   20.478489
H   31.456217   40.686501   75.336906
H   71.766167   31.093319   57.367943
H   34.852085   82.140236   19.761366
H   16.712227   39.287361   34.133362
H   81.509285   52.897758   12.629498
H   69.281052   13.119771   94.231392
H   48.445538   11.044813   39.937099
H   32.759407   12.290453   87.967293
H    6.797238    6.806650   67.696220
H    8.364582   61.940384   68.560425
H   87.551773   31.162298   31.150846
H   24.837791   73.030060   89.089256
H   80.255707   11.561443   80.332680
H   67.621384   47.157005   64.300812
H   61.499680   15.702122   41.889923
H   74.678062   15.768821   15.719038
H    4.346687   60.666817    2.390994
H   56.676754   77.911591   64.438454
H   99.289925   68.729744   24.791729
H   93.995850   52.711643   23.193176
H   42.951313   95.943153   37.906403
H   94.608536   20.098761   47.967743
H   75.105293   68.476624   37.431252
H   91.107422   76.450272   85.452530
H    2.707873   60.914467   68.510559
H    3.577186    4.103773   19.811325
H    4.305648   58.305885   18.185677
H   29.316469   20.063978    7.132091
H   22.321358   77.388878   96.251129
H   30.177551   43.771351   35.673363
H   65.229904    5.884167   89.561745
H   14.485420   53.348892   32.745857
H   18.130604   60.422150   83.926422
H   93.346611   85.418701    9.557479
H   50.413361   20.779119   41.878189
H    9.035912   43.873589   20.034580
H   44.590576   25.427708   53.978374
H   26.784111   75.866386   49.318146
H   56.320236   73.951408   57.609879
H   92.784920   51.165661   84.846039
H   67.551811   50.129913   66.019356
H   13.334298   85.503319   43.468861
H   84.463058   21.907274   56.273022
H   53.786648   42.213444   26.988482
H   48.513214   40.115391    8.928513
H   15.111333   21.194637   56.687851
H   94.624718   32.168526   32.870422
H    8.491746   26.707180   57.024220
H   45.812744   29.979076    7.092535
H    6.511577   72.458794   30.507851
H   67.702431   12.190866   58.968750
H   42.660355   96.442551   16.553284
H   24.777529   41.140537   93.155502
H    1.500258   97.934204   31.462154
H   62.115097   47.596203   70.885612
H   66.852341    3.420615   98.299545
H    2.391733   20.669395    5.681755
H   84.916191   63.787025   12.485260
H   21.997921   47.965233   62.646614
H   57.794323   79.558853   10.698992
H   51.988605    6.165100    2.702908
H   71.253746   98.209183   86.225700
H   99.166473   67.979912   38.739502
H   21.788317   99.373009   67.170494
H   18.034218   31.884392    0.240550
H   55.845139   79.268127   53.515450
H   26.488508   27.585827   76.296104
H   22.808443   82.991936   18.000078
H   26.944389   71.408592   73.781441
H   36.991367   72.979599   25.725971
