100
TIME:    9.412, STEP:  9412
H   80.827057   58.896309   90.529068
H   40.539139   14.885725   71.562737
H   41.554508   51.040642   12.857552
H   83.056381   44.876701   24.258383
H   10.859621   27.170288   10.508345
H   82.065918   91.011375   10.847419
H   59.685619   96.880455   26.483837
H   80.121658    2.860253   44.015556
H   22.262947   81.366470    7.634975
H   17.683157   51.527378   76.238594
H   24.773712   44.953217   33.135796
H   96.609779   95.465706   22.972385
H   43.577713   92.293022   89.768967
H   89.055923   76.065468   73.498116
H   94.924141   29.306587   98.278587
H   23.087257   88.520920   51.762756
H   67.249947    4.502343   30.199842
H    2.336921   36.850883   73.258865
H   91.862793   73.199463   59.220783
H   38.939274    5.939558   57.145317
H    5.754957   19.223162    1.785954
H   64.717957   56.578552   17.759506
H   60.078438   18.081568   63.062180
H   44.547565   49.423065    8.056755
H   92.957993   39.742157    6.046791
H    3.227072   48.637741    5.170452
H   50.472183   51.232349   86.714523
H   38.384460   95.760056   77.884056
H   15.826245    3.022562   12.261993
H   61.890800   57.892502   31.615108
H   86.477150   66.047073   64.731613
H   60.036732   92.469208   27.948067
H   33.325943   79.855896   45.704247
H   75.781326   11.169016   75.239052
H   46.717140   47.049507   97.685669
H   90.806839   22.620996   89.837044
H   82.532013   59.847420   50.094074
H   74.975395   86.709694   86.620003
H   47.789539   76.346031   32.219284
H   76.687729   31.063118   78.551773
H   92.008377   79.130188   64.087120
H    7.021769   78.512329   60.458652
H   92.286835   19.948757   81.311028
H   78.361244   70.629433    0.989864
H   40.234573   60.555721   61.524273
H   56.635727   42.430309   21.398626
H   15.276357   36.696239   15.816544
H   56.762081   92.310547   50.938389
H   40.151398   52.947651   69.027344
H   23.341352   73.995110   25.445484
H   43.689014   61.039459   51.366409
H   62.552319   90.375259   56.196907
H    4.096251   76.582703   56.239456
H   58.727509   53.641747   47.141304
H   91.397072   83.427704   80.392365
H    5.318394    2.633213   72.220093
H   92.932388   17.967476   51.147011
H   25.218794   88.039589   71.123436
H   32.583416   36.460464   88.926140
H   37.923618   51.226574   95.910927
H   53.419559   40.869396   80.566368
H   64.867638   40.336502   69.493645
H   13.040923   65.025047   88.061371
H   89.345093   93.034149   71.605942
H    5.900549    9.121738   72.067146
H   23.155220   74.375237    2.695330
H   32.426590   73.757751   21.473728
H   30.214676   55.819954   16.150635
H   25.994516   73.500046   69.929688
H   21.177811   21.385309   81.880920
H   23.151611   55.006443   49.252571
H   98.212349   39.085350   45.941181
H   93.311981   52.753193   20.424953
H   23.015545   53.733700   43.924110
H   15.856420   42.173908   14.925631
H   48.164864   10.793265   62.619804
H   21.593258   11.167217   57.668625
H   74.164909   35.300468   34.239731
H   12.854007   25.872707   22.695215
H   37.951561   96.302498   10.069002
H   95.071114   26.653818   42.525841
H   47.564407    5.514229   99.596382
H   13.202986   64.520180   26.294254
H   97.680046   17.564373    3.777274
H   94.045364   60.141693   35.365723
H   34.674282   54.773926   95.380920
H   95.761040   19.023094   72.343636
H    7.399365   51.918861   97.991730
H   51.010990   70.127220   51.212776
H   34.191441   22.040573   60.670692
H    9.200846   81.650467   32.226341
H   74.691589    3.352153   12.864259
H   88.780945    9.920675   46.848991
H   56.063942   84.124008   62.714520
H   93.861740    6.659297   32.362251
H   71.314194   24.062231   81.306763
H   15.522227    7.814125   95.895004
H   20.109972   52.165218   89.930870
H   60.347038   77.445488   56.684780
H   23.827324   37.107533   91.051880
