100
TIME:    3.840, STEP:  3840
H   57.638580   69.873779   95.630386
H   94.452934   12.942713   20.225691
H   45.760841   50.168724   78.266975
H   82.121140   74.441948   29.679159
H   60.776520   80.550438   61.586319
H   68.477791   97.047935   59.034859
H   51.714977   20.632351   90.745934
H   18.069870   20.811092   55.618679
H   59.233406   17.093185   58.373806
H   69.903679   71.520073   58.062134
H   43.067581   20.753010   69.860481
H    9.277115   16.169733   19.593554
H   99.000626   29.382202   43.464066
H   64.946617   93.239906   49.466518
H   27.210419   27.022842   66.188820
H   47.126801   75.868584   14.287615
H   15.317313   35.956654   22.958700
H   83.197472    7.961393   66.417664
H    5.077808   39.446678   65.666687
H   89.062859   24.269587   77.777702
H   36.405670   73.933716   53.017311
H   30.524887   49.181641   92.266830
H   34.474495   63.391747   22.483517
H   62.263893   82.736450   21.881084
H   92.244293   81.628342   64.899086
H   29.049109   13.191005   29.247721
H   30.950994   82.853348   76.162514
H    8.534236   35.677917   93.700615
H   94.667496   97.487137   75.653603
H   48.235458   95.799370   88.657898
H   67.185402   66.394844    5.570366
H    8.217168   46.415161   43.776009
H   40.841953   87.529961   43.734482
H   40.351135   21.809547    9.978451
H   85.318680   68.645531   58.556206
H    6.434846   86.137726    7.431887
H   48.104645   63.906723   11.042224
H    5.279016   88.676155   93.420174
H   82.985229   97.751823   72.187798
H    1.508737   52.695869   40.157536
H   72.815079   87.943863   32.814434
H   86.503799   84.199677   83.208023
H   44.317005   86.527283   78.840446
H   34.148468   77.126801   56.188354
H   23.564444   80.383972   84.709656
H   28.546383   36.158924   98.759743
H   71.734665   33.670738   62.327003
H   56.444492   34.920715    6.175344
H   77.275986   14.421310   91.294586
H    6.413783   89.184029   15.090328
H   43.251652   98.915871   93.905167
H   91.750076    7.415601   21.972736
H   88.527992   44.274353   79.848763
H   87.768028   44.554054    1.265921
H   35.047195   95.115662   33.007328
H   98.370926    8.494864   61.904144
H   39.690716   78.745018   21.203527
H   40.121574   14.246878   14.645311
H   93.129951    1.017474   16.683857
H    5.619321   22.943007   54.391853
H    1.930370   99.995506   14.999842
H   62.625511   92.199905   21.605888
H   34.757679   45.248711   70.150139
H    6.724921   62.683151   22.883595
H   84.738976   54.150249   53.171741
H   65.447884   51.375008   73.234573
H   79.477921   81.120483   52.457806
H   15.110884   37.151505   49.776806
H   48.288261   73.868423   19.393871
H    8.185198   41.283661   93.647186
H    0.094175   34.126686   16.084435
H   57.340752   24.083191   37.768497
H   56.616470   28.364254   63.293724
H   45.678982    6.376177   74.994469
H   47.312588   34.113216   92.495644
H   16.435984   53.681595   37.546307
H   15.601709   93.720749   58.961521
H   12.390513   99.631813   26.508440
H   45.653839   42.239437   60.528961
H   11.204472   99.818535   90.101860
H   86.019638   69.008224    9.496968
H   29.444305   69.305679   65.679077
H   60.755901   71.354248   95.641022
H   14.336470   40.756416   12.692756
H   65.353195    8.689489   75.507523
H   62.917667   50.105125    8.444480
H   23.619650   24.153648    6.649370
H   17.767366   97.854744   55.808266
H   35.375595   80.367363   96.784554
H   26.830694   51.288979   61.485825
H   81.171204   80.779991   14.555581
H   62.417381   84.291557    6.695663
H   31.604858   42.736679   15.957621
H   18.377972   46.157562   85.729851
H   90.198280    5.765080    4.326777
H   11.089889   44.093391   69.107903
H   57.801117   88.050468   16.347097
H   20.961706   48.932983   94.591194
H   25.784508   53.403027   23.396439
H   77.727577   80.091927   27.820311
