100
TIME:    1.136, STEP:  1136
H   40.498940   17.844215   98.105972
H   69.670326   66.338829   49.658749
H   99.282501   55.632275   10.001366
H   81.667282   85.846275   77.895988
H   84.996002   63.812935   34.902855
H   10.400673   99.977379   91.247368
H   93.433052   38.046085   79.289452
H   30.598938   86.880478    3.889610
H   25.702950   77.071579   28.579538
H   43.795448   32.694633   52.176125
H   94.587082   11.951810   30.324526
H   12.481182   80.632607   12.067499
H   71.000336   92.977654   12.220077
H   98.833946    1.574751   43.690708
H   94.318336   68.552338   96.165207
H   55.848328   12.373310   38.742661
H   32.733818   57.122482   76.785530
H   25.420029   39.457092   60.163376
H   62.953629   26.009676   23.211779
H   61.910065   81.690292   93.676842
H   96.864792   43.125381   26.411613
H   71.274895   45.599327   22.526684
H   70.576790   85.383202   99.846848
H   13.494858   50.306278   22.704941
H   88.954582   96.080757   44.944077
H   41.450123   93.760544   82.695389
H   64.121338   95.254349   22.508871
H   36.688683    9.464068    4.322340
H   35.872330   52.158634    3.473679
H   44.552105   62.723923   73.697441
H   60.788761   23.914938   19.518661
H   37.484806   21.126732   94.098885
H   50.376652   85.367393    0.136803
H   26.100670   69.615120   23.893091
H   52.534767   73.047218   93.903809
H   71.325592   73.722977   16.735518
H   88.756187   62.933449   97.977791
H   17.038956   38.162136    2.606701
H   99.649033   56.257744   33.246742
H   56.194244    5.834290   27.411848
H   57.607178   95.161537   69.108200
H   29.523979   62.844139   56.171284
H   21.025869   70.312195   83.527443
H    6.818488   31.808966   91.806160
H   58.115074   87.070084   53.320045
H   63.431515   84.584236   87.784645
H   48.075184   87.021408   37.330269
H   56.300083    7.079607   38.867153
H   98.238762   38.365448   99.157516
H   49.715343   48.040043    4.212419
H   43.457951   59.970146   65.394669
H   60.340233   58.327473   99.484482
H   32.444366   28.595642   36.892532
H   50.383755   88.669838   81.945511
H   50.323654   58.093525   10.045855
H   94.987625   11.338064   53.954681
H   68.267914   56.768227   64.030495
H   41.469421   69.606468   84.294266
H   79.870552   86.766907   24.271660
H   84.054321   15.104094   31.299034
H   31.360933   25.742592   25.824448
H   58.592285   17.371628   43.955147
H   51.287743   29.687256   55.624123
H   21.045942   47.974045   96.296272
H   77.412956   70.114555    1.354280
H   31.558907   85.799202   13.354622
H   96.424728   87.637115   21.908699
H    1.894362   82.505844   20.509970
H   13.519337   68.160614   88.984261
H   53.397850    5.279947   99.341034
H   85.958626   18.107565   48.522892
H   80.298355   13.823978   39.794250
H   32.923019   62.113338   32.619984
H    5.187629   77.492004   35.692741
H   16.943413   30.260092   87.514091
H   52.516644   80.380150   19.491596
H   70.097191   28.085878   11.135174
H   85.351669   76.441292   77.177750
H   16.003328   50.174656   30.355263
H   43.814011   47.085770   23.053650
H   33.112576   41.034100   47.884365
H   26.557800   51.646500   91.785477
H   89.675194   26.217386   38.098179
H   28.316366    9.370584   59.668983
H   97.015106   77.827148   37.629921
H   25.145763   50.783001   20.670723
H   43.025597   20.756477   77.711914
H   74.242523   14.343615   83.933357
H   79.257515   30.920965   18.905754
H   65.900101   62.539261   64.824593
H   70.512337   34.772701   57.451977
H   62.339451   80.944328   55.166679
H   58.171745   61.667206    6.798683
H   57.027290   82.139977    3.413793
H   36.952244   47.974220   42.189934
H   87.750504   50.871330    8.773087
H   72.432083   32.872997   71.856628
H   11.036155   25.910034   37.860382
H   54.595573   41.747143   49.893200
H    9.790878   49.524929   88.272652
