100
TIME:    3.394, STEP:  3394
H   87.800201   10.774210   96.038712
H    6.859466   88.762009   92.092545
H   38.094536   18.081905   83.500343
H   82.046280   92.816582   54.127468
H   64.771301   44.801571   73.679550
H   75.392097   97.531120   14.864922
H   75.089806   90.516380   55.868156
H   53.124588   82.225906   96.567589
H   70.196938   59.974136   86.446846
H   82.092186   65.116173   40.596024
H   84.553421    2.807634   12.822569
H   26.300873   93.814529   51.340172
H   27.370411   56.365692   87.792992
H   87.030205   94.614601   15.524487
H   21.784798   66.861557   87.625893
H   65.059082   14.877569   51.309914
H   51.181892    6.458286   82.357559
H   73.669884   29.650581   81.879578
H   98.131004   20.735178   42.170734
H    1.080917   33.740719   47.411919
H   62.871948   18.333626   65.121063
H   87.766434   48.589569   30.247803
H   40.429237   67.019035   35.244949
H    3.702135   77.387390   55.006466
H    8.195720   16.997749   61.605263
H   31.095839   26.480108   71.050697
H   69.411301    1.391482   67.315468
H   46.165699   14.860138   78.960075
H   84.969772   57.022110   96.736794
H   31.133526    6.838267   53.201660
H   49.631435   26.402353   40.856468
H   80.056496   58.736374   85.064491
H    9.425777   20.160995    3.555279
H   21.505981   62.682899   28.766514
H   96.404709    2.359641   31.399178
H   67.651024   51.102169    8.971456
H    5.328145   80.239731   75.899284
H   23.711990   96.835854   61.945332
H    1.809288    7.468653   15.408476
H   43.516415   94.448044    5.066694
H    3.296411   72.638474   22.306868
H   26.587791   64.184937   62.254135
H   40.475346   83.852753   46.625423
H   62.629150   69.654449   12.581626
H   62.250225   97.982788   46.544857
H   34.300365   27.652149   96.949501
H   68.250290    9.414639   58.042992
H   56.420673   30.327677   78.579430
H   64.236801   51.357727    9.085212
H   97.060814   82.399025   46.282970
H   43.285679   41.975006   89.202621
H   70.074814   48.801758   51.253056
H   79.279427   41.688293    5.750595
H   98.098656   51.832451   81.584747
H   70.557877   56.026024   29.214556
H   97.812881    8.964437   77.087036
H   11.417459   91.614067   78.785042
H   73.332024   56.366302   26.134460
H   57.953323   82.173203   50.924564
H   35.049660   88.661835   67.077156
H   73.796700   20.736069   49.772160
H   78.454918   96.351212   41.787361
H    4.478509   75.682549    0.733700
H   76.100090   60.257019   34.993839
H   67.038078   89.770760   11.637429
H   92.846504   73.547066   46.863571
H   15.261478   65.699402   30.925371
H   45.919044   11.643435   28.455427
H   26.058357    5.915123   47.367550
H   99.149231   18.850592   94.586334
H   14.257105   64.472054   21.435196
H   94.116623   38.884979    5.114089
H   85.696030   50.424023   74.727043
H   55.499203   34.600136    1.494781
H   25.810373   33.476910   58.686314
H    5.891716   25.095839   67.555206
H   75.108742   32.376991   51.074039
H   91.436615   28.794809    1.876624
H   24.267805   43.549480   55.550797
H   33.077278   24.108795   28.524979
H   77.295090   64.394150   82.840469
H   95.979446   66.392960    2.972901
H   32.537228   63.909119   53.161594
H   83.651627    2.590608   53.426666
H   87.069290   36.588085   18.742058
H   73.180603   33.721077   77.472809
H   93.832298   56.581474   85.382263
H   10.589350   33.562378   60.446159
H   26.119144    5.200129    0.432404
H   66.264282   69.638748   45.544128
H   62.919067   56.696644    5.136880
H   29.414629   50.753105   98.196617
H    3.016612   29.353819   81.467674
H   75.271248   19.103428   55.657646
H   97.908821   45.716274   94.078178
H   74.252060   61.705818   92.144249
H   93.202911   62.455288   41.997765
H   19.325003   45.135559    1.729481
H   47.031029   51.480495   60.754791
H   50.024433   91.538643   70.785629
