100
TIME:    9.448, STEP:  9448
H   78.392487   55.594917   90.496109
H   39.544876   16.836582   73.832512
H   42.173313   53.630669   12.434921
H   83.062424   43.393547   22.285101
H   10.537035   30.055847    9.532278
H   81.507812   90.972374   14.412620
H   57.798992   99.311180   29.299084
H   77.292130    5.974643   40.710045
H   21.377998   77.905228    5.368874
H   16.699743   52.044285   77.648140
H   21.425079   46.401764   29.668055
H   95.235939   97.270210   20.409962
H   41.282120   90.113884   86.191269
H   87.273392   75.954506   76.237556
H   95.361397   26.090889   96.547142
H   21.639671   85.372238   48.774475
H   64.355049    6.883389   33.477066
H    3.106805   35.099113   72.010818
H   92.423645   74.709534   61.117298
H   37.969456    5.175047   59.596367
H    3.618600   15.639277    0.808770
H   68.169312   56.626343   14.693771
H   59.597786   17.788919   62.032211
H   41.202503   49.853729    5.383060
H   91.670395   36.887085    6.312522
H    3.057247   47.576462    1.782657
H   47.367722   49.735737   87.428635
H   35.347015   97.440414   79.073875
H   16.609035    6.288723   10.560349
H   63.271233   57.001511   34.477028
H   87.893837   69.275406   61.883408
H   62.309803   91.474396   24.615364
H   35.861862   77.221924   48.947411
H   77.302383    7.869889   73.722389
H   45.821205   44.323799   99.875793
H   93.936295   25.440775   89.723885
H   85.985016   58.529060   52.930744
H   73.487297   86.051064   89.160591
H   46.269855   75.561607   28.730705
H   73.296799   27.692787   81.384048
H   89.547989   80.365601   64.935265
H    3.987825   78.653503   62.296391
H   92.596649   20.164776   83.911491
H   76.062904   71.233681    4.509624
H   37.111984   59.135464   64.605057
H   56.171280   43.116955   21.544882
H   15.557813   38.654278   16.162237
H   56.764278   92.681335   53.165867
H   41.203613   49.966236   67.591431
H   24.096937   74.543327   22.928379
H   43.889515   57.579041   51.433975
H   64.301895   87.034866   53.833748
H    4.842978   76.791443   54.148483
H   57.893921   53.054253   48.729927
H   88.530739   86.582428   80.698334
H    5.363232    2.595345   70.994568
H   95.214798   16.928719   54.570900
H   22.538267   84.639870   70.196190
H   35.422832   37.981796   86.162529
H   35.548100   53.993755   94.887001
H   55.690708   39.195354   77.759911
H   63.589928   40.001419   67.864922
H   15.484969   62.568504   85.592743
H   91.817017   93.230255   70.628708
H    7.329459    6.246363   75.419624
H   20.943810   72.585564    4.823989
H   29.538166   75.002502   23.211903
H   27.727921   57.878792   17.871643
H   27.788858   70.913315   67.671997
H   21.908951   23.193384   81.804565
H   22.008347   52.556767   48.820808
H   95.247688   37.890038   48.579823
H   90.964752   50.972584   19.501827
H   22.223156   51.455410   41.785072
H   17.590475   42.226917   17.655157
H   49.016029   13.100532   60.197594
H   24.862926    8.051220   58.307205
H   75.856255   32.946648   36.227982
H   14.580302   25.766964   23.097040
H   36.186058   94.341438    6.967619
H   95.775887   27.026255   44.677513
H   50.265671    5.747929   96.584480
H   15.480040   65.122231   29.722813
H    0.156906   20.645077    0.489302
H   92.292496   57.889771   31.875921
H   33.845638   56.096405   97.880859
H   98.165398   16.405602   74.060249
H    7.978311   49.038246   97.618744
H   51.758060   68.122765   50.918343
H   31.008471   20.559341   61.957466
H   10.674181   83.594498   32.986595
H   77.355225    6.059635   13.550080
H   91.088623   11.000906   49.632927
H   59.340065   86.292709   65.453957
H   93.239365    3.434569   33.189522
H   74.287643   22.640738   79.447327
H   12.664752    9.880034   93.824631
H   20.040483   53.946377   89.207970
H   58.632072   77.600945   53.669308
H   26.063316   36.183857   87.584045
