100
TIME:    0.314, STEP:   314
H   96.088295   93.225990   98.858536
H   92.535713   21.769310   97.807587
H   85.159393   96.494621   19.652992
H   81.529312   19.713453   22.951506
H   92.358582   97.926010   57.191277
H   23.147217    0.871900    9.841650
H   36.513882   82.540581   15.007958
H   95.206512   15.767477   79.363930
H   45.909279   56.103592   80.322365
H   66.259468   20.894882   19.985224
H   71.047516   78.877060    9.503754
H   43.856808   39.429756   70.578239
H   23.289188   42.710037   93.920097
H   39.534473    4.109133   81.135780
H   84.321785   41.974953   35.678524
H   88.898407   84.272713    6.975007
H   98.821434    2.762389    1.944069
H    7.854664   79.430756   88.660446
H   50.153778   91.525177   79.904999
H   84.149696   98.948303   37.609734
H   45.643341   24.957573   48.719635
H   92.456093   44.514381   92.518806
H   81.551674   92.068474   23.366508
H   89.867508   40.447697   83.754623
H   18.352968   61.271961   38.877151
H   45.219212   18.253315   59.741524
H   35.001972   29.424023    6.197144
H    6.046998   71.095642   77.154373
H   17.998947   77.580620   42.328827
H   13.033977   83.068222    8.350983
H   28.453615   50.200417   84.564629
H   85.583588   43.835335   70.195534
H   92.475281   45.508186   26.084555
H   91.369148   44.946411   58.522820
H   72.966866   35.184280   43.848320
H   99.855766    9.151918   19.563902
H    9.916043   93.035988   33.207165
H   51.010925   53.207134   44.598934
H   36.603947   73.805016   12.030826
H   33.618404   82.787788   62.740105
H   13.783787   66.952950   49.737614
H    3.400647   25.949717   17.552237
H   13.945956   65.382904   24.153980
H   59.308304   18.033918   11.433182
H   29.418625   19.502949   82.977112
H   73.941154   69.106987   84.549644
H   39.395618   42.679859   30.306341
H   56.256184   98.615738   88.006500
H   74.206902    6.444451   31.947973
H   32.475368   35.528675   61.702049
H   43.520664   39.329216   56.727650
H   20.392565   34.601860   53.449409
H   15.392590   23.829407   84.633705
H   69.415558    2.078753   45.671955
H   15.761518   86.031830    3.070584
H   93.959122   12.201944   81.937500
H   16.158653   80.486519   85.851387
H    2.678017   47.233330    5.466799
H   15.041946   52.036102   87.377670
H   38.297546   51.923698   54.678673
H   79.507889   63.966545   89.914032
H   87.766663   25.022690   81.147705
H   95.530922   85.740822   12.016459
H   64.602425   43.502563   18.615011
H   44.785637   35.765354   24.803061
H   82.055916   26.663258   64.751991
H   62.375877   59.216358   82.221909
H   58.675667   35.495712   81.213615
H   72.553123   27.224281   40.539333
H   36.747383   63.938614    1.070470
H   12.061262   74.039940   58.381474
H   48.075901   41.104530   79.611702
H   86.518082    2.776127   53.698032
H   23.279572   29.508829   84.546654
H   77.310226   29.090483   25.201488
H   33.081692   27.696646   74.800674
H   95.463867   99.328728   96.589294
H   46.732620   30.188717   31.781178
H   76.604240   52.581814   21.189667
H   84.126328   91.853127   93.869873
H   17.026531   32.530132   98.756073
H   64.883858   46.278214   60.524033
H   37.663692   12.498382   59.806793
H   71.770966   39.030979   34.749733
H   37.040939   29.242889   17.313549
H   44.066463   20.587578   63.588367
H   88.126060   80.522560   38.515896
H   61.009949   80.154488   92.474953
H   62.199409   76.689293   25.631790
H   38.574013   96.366714   35.436993
H   36.872746   90.386780   40.092846
H    1.519473   19.121893   39.507088
H    5.431167   37.039566   43.206902
H   77.577431   32.278656   47.989536
H   51.163151   21.603146   23.302036
H   19.856735   83.331902   51.230476
H   37.678185   85.700310   19.130592
H    8.018062   18.911194   51.011429
H   93.753960   38.203823   18.749851
H   58.741955   70.638634   67.443344
