100
TIME:    3.113, STEP:  3113
H    6.803091   36.543297   96.295975
H   14.676476   73.527740   74.367111
H   33.264420   97.866241   86.797600
H   81.999115    4.393827   69.530334
H   67.288193   22.278179   81.298828
H   79.748421   97.835548   87.036766
H   89.818123   71.543221   33.893593
H   75.210632   57.915073   22.368328
H   77.104454   86.991058    4.134062
H   89.771492   61.081429   29.591593
H   10.691345   91.501007   39.889561
H   37.026604   79.729370   71.342384
H   45.244049   73.366501   15.722349
H    0.943821   95.480721   94.140099
H   18.366413   91.961868    1.132329
H   76.357224   39.454803   74.635109
H   73.778175   87.871597   56.777020
H   67.667076   43.315544   91.621277
H   93.753242    8.946094   27.367380
H    8.650887   39.707081   28.280115
H   79.546890   46.308853   72.748917
H   60.826691   48.216537   54.177567
H   44.180992   69.304390   43.284424
H   29.810104   74.017242   75.875725
H   18.245480   39.283173   59.530006
H   32.385052   34.852589   97.390160
H   93.641205   13.072713   61.740566
H   69.875175    1.744026   69.672874
H   78.859772   31.527349   10.019468
H   20.359558   13.793485   30.862694
H   38.571262    1.204807   63.088295
H   62.313911   66.499977   11.078026
H   89.632904   40.719994   78.240578
H    9.632501   88.434944   40.604614
H    3.389746   23.601349   14.289032
H   43.217800   29.026987    9.939023
H   78.375801   90.530258   53.757504
H   35.325279    1.977582   42.116772
H   13.670844   13.590445   42.639130
H   69.982849   20.754374   82.958961
H   22.500101   62.995617   15.686654
H   51.842461   51.572639   49.052246
H   38.054928   82.167679   26.329201
H   80.573257   64.946533   85.106407
H   86.625755    9.069477   22.498899
H   37.925632   22.292500   95.808968
H   66.054977   94.132660   55.343872
H   56.405666   27.434538   61.192726
H   56.023613   74.630302   20.294714
H   91.169487   78.124168   65.935944
H   43.307117   69.103409   86.239807
H   56.418430   74.876633   69.700310
H   73.452415   40.058960   22.070728
H    4.605900   56.418167   69.184662
H   92.931198   31.399506   26.825224
H   97.461288    9.260290   86.652939
H   93.603020   99.722145   52.059685
H   94.256096   82.903000   33.373001
H   35.792244   70.300507   72.497383
H   53.591904   67.064590   75.069466
H   56.071266   33.803242   71.681015
H   88.428154   98.966721   54.502594
H   85.402168   94.857231   20.002731
H   56.804550   58.728447   42.623837
H   55.884159   12.213468   85.469002
H   10.108650   87.516457   30.248772
H   37.807106   55.985195   17.357954
H   65.329552   95.572388   15.022002
H   12.052671   26.105995   64.992104
H   93.455139    4.716830   95.178040
H   23.180817   83.590996   24.806416
H   17.286360   48.210770   84.541321
H    4.017662   64.322716   81.930412
H   61.685131   52.383453   18.193703
H   12.262399   33.076008   37.384922
H   99.248451    7.086330   86.464050
H   49.595600   56.733383   46.104572
H   78.234726   47.169643   86.359161
H   10.793439   44.374866   52.414330
H   46.858009   39.413258   52.733444
H   71.798233   61.487072   66.045471
H   74.896729   64.557816   26.470671
H   14.758238   59.218353   26.397648
H   64.318298   78.545013   79.092072
H    0.751441   54.165592   45.981941
H   79.646484   23.399284   57.959393
H   75.064949   77.012459   71.983139
H    6.066877   56.060043   63.368240
H   20.286774   20.845316    2.731380
H   91.107330   81.198441   35.500145
H   51.419403   41.524548   99.202591
H    8.622213   29.621080   92.841255
H   85.004013   20.922018   59.737511
H   48.111576    2.058592   36.712357
H    2.767295   70.886749   87.620872
H   51.042633   72.802437    6.658422
H   15.507236   46.329174   58.158180
H   18.293806   42.743011    6.225695
H   60.417290   50.269215   84.290382
H   32.571270   98.750587   97.854004
