100
TIME:    3.960, STEP:  3960
H   49.523346   58.869141   95.520523
H   91.114922   19.448908   27.795271
H   47.823524   58.802147   76.858894
H   82.141281   69.498100   23.101553
H   59.701691   90.168968   58.332535
H   66.617439   96.917931   70.918785
H   45.426220   28.735683    0.130089
H    8.638107   31.192257   44.600307
H   56.283577    5.555502   50.819790
H   66.624260   73.243095   62.761536
H   31.905472   25.581501   58.301487
H    4.696732   22.184748   11.052141
H   91.366959   22.122070   31.537472
H   59.004845   92.870033   58.598904
H   28.670227   16.304306   60.420429
H   42.301971   65.372978    4.326262
H    5.667454   43.893360   33.882774
H   85.760948    2.125708   62.257122
H    6.946743   44.481163   71.989319
H   85.829216   21.721216   85.947868
H   29.284698   61.987759   49.760780
H   42.029404   49.340942   82.047714
H   32.872322   62.415794   19.049831
H   51.114601   84.175659   12.968504
H   87.952301   72.112350   65.785316
H   28.498419    9.615642   18.000010
H   20.603247   77.865555   78.542885
H   98.409088   41.279114   97.666679
H   97.276749    8.374393   69.980995
H   52.836899   92.829399   98.197693
H   71.907692   77.155952   96.076347
H   15.793843   43.100037   32.667000
H   49.295017   78.750053   54.545029
H   45.421326   10.812342    4.923296
H   82.335892   59.574486   65.863266
H   16.869570   95.563995    7.017725
H   59.613739   59.512192   20.497671
H    0.319385   86.480721    1.888628
H   77.920532   95.137077   60.558769
H   90.205711   41.461433   49.599369
H   64.613785   92.061905   35.641582
H   75.718887   89.584808   88.845840
H   45.350636   87.246887   87.508659
H   26.485834   79.137299   67.921753
H   13.155355   75.648865   94.978210
H   26.998226   38.447742   99.246803
H   72.672165   40.196617   63.479652
H   56.450901   36.156677   13.600243
H   80.784286    4.483221   86.508209
H    8.930568   91.009590    6.697671
H   43.242496   87.330788   95.170425
H   97.581985   96.280579   14.094624
H   91.016396   44.970154   72.879768
H   84.988487   42.595741    6.560877
H   25.492752    5.632768   34.028141
H   98.521072    8.368521   57.819061
H   47.297832   75.282494   32.616493
H   31.186028    2.914200   11.554262
H    2.594435    6.088002    7.471363
H   97.700500   32.166943   50.978767
H    9.500179   94.414452    5.643839
H   58.366478   91.082962   16.175896
H   42.904957   37.060234   61.921379
H   14.965143   63.335922   19.625233
H   89.501549   44.565594   64.346672
H   58.076057   45.409431   80.329910
H   69.850235   85.269653   58.251263
H    6.821470   44.014297   55.513500
H   54.269402   65.245987   11.867447
H   10.616381   47.319733   93.394501
H   96.283745   25.961674   14.644768
H   47.446648   20.100647   46.554813
H   48.792374   22.428890   60.216637
H   43.036770   98.782310   67.864342
H   53.097805   34.284420    1.592387
H   19.273203   61.372940   29.472126
H   26.496943   83.320358   61.083714
H   18.028332   91.785744   33.135941
H   51.407928   41.886959   61.868378
H    5.319285   93.283501   79.763725
H   88.367050   70.249680   16.668959
H   38.448517   70.089371   55.644897
H   68.347847   73.357422    7.070395
H   22.592237   51.024971    1.732804
H   59.510300    1.183288   63.874832
H   60.155521   54.513390   16.777817
H   31.634176   15.428673   12.371618
H   19.698671   88.247200   54.560402
H   37.865829   73.685844   95.803108
H   16.221106   46.351540   65.775452
H   86.082092   87.260094   17.089762
H   71.296326   93.314995    8.982357
H   39.297096   46.337448   25.237406
H   29.976788   53.436920   93.821281
H   88.123695   95.016350    7.084117
H   21.001389   39.354622   62.909782
H   48.275970   94.937065    9.445612
H   21.402075   49.954712   92.670418
H   20.067955   53.920300   13.344864
H   85.181801   77.012093   16.260405
