100
TIME:    6.976, STEP:  6976
H   45.563553   82.288307   92.759293
H    7.816697   82.883308   17.963982
H   99.681458   75.785500   41.454472
H   82.647507   45.239777   57.785755
H   32.687653   31.914503   76.557526
H   19.838879   93.650475   69.603592
H   87.357925   32.390621   35.985439
H   71.586449   92.114929   67.681557
H   82.144478   15.579566   60.973820
H   84.220192   16.550020   80.856361
H   51.364502   46.936970   67.785027
H   89.585770   73.361511   96.370247
H   98.913673   39.735577   31.851006
H    9.671650   83.573891   88.116493
H   65.336494   46.902122   15.427425
H   21.033993    1.582427   53.972168
H   63.138680   43.378445    8.441155
H   50.246052   55.386841   57.700157
H   53.916744   71.006546   30.884617
H    4.573830   57.666866   91.291161
H   50.310989   61.735390   67.899803
H   31.176254   53.344727   25.207413
H   92.602547   37.886864   32.759903
H   70.887718   20.281466   88.975113
H   80.082832   32.928452   88.059242
H   14.714840   20.448311   34.410042
H   60.531590   52.494179   38.383144
H   43.926910   82.055809   97.360947
H   62.857292   82.009438   27.412268
H   68.483994   18.184135   37.960167
H   90.604622   47.606682   57.460091
H    6.226217   59.769146   53.460793
H   61.738285   58.084862   26.250128
H   72.854286   34.413864   77.863800
H    7.342379   31.488930   49.477806
H   79.049553   31.819450   97.494148
H   48.887817   49.059692   58.146824
H   75.660469   31.288494   14.718986
H   50.614399   29.420244   68.286118
H    6.132576   59.114346   86.891830
H   58.491287   95.547981    6.696765
H   12.314766   68.959534   36.097393
H   71.322723    5.334885    5.358547
H   33.902355   29.734518   62.810997
H   51.538902   56.652897   53.065495
H   88.077538   95.973373   11.502005
H   96.234665    4.216083   92.426964
H   56.613400   67.220520    0.213298
H   68.943123   54.696819   66.200699
H   72.201904   36.912617   95.769722
H   43.022587   96.155380   26.963737
H   44.161358   16.417763   16.105507
H   53.576771   62.457947   97.713051
H   15.145454   93.381760   39.647232
H   85.355148   69.948997   59.684574
H    2.284359    5.195648   55.147293
H   38.499653   88.256721   19.463234
H    6.608636   18.090357   33.870712
H   40.458961   33.526226   75.936836
H   98.675682   63.987942   65.196556
H   99.751579   54.154099   70.491226
H   51.326057   63.010452   79.712646
H   47.661625   31.253780   55.105194
H   22.068703   79.764313   37.741856
H    9.211371    3.682291   45.213764
H   72.800781   95.475822   58.659409
H   27.871309   89.540863    3.862830
H   98.485558   16.502195   99.695740
H    4.583745   48.535461   22.709698
H   71.715538   99.013603   87.043671
H    0.512031   20.754776   78.468513
H   98.795723   19.987911   67.387245
H   52.143173   73.247528   82.884338
H   76.638237    7.908838   88.663757
H   98.512810   38.587337   30.226658
H   90.573402   54.669933   26.533480
H    0.352151   22.009869   14.461794
H   59.725491   94.576485   99.696815
H   96.038719   33.028011   95.510826
H   57.415268   29.004284   19.932426
H   47.382622    1.451918   96.928741
H   64.769020   89.711136    3.392647
H   59.124069   23.781408   94.301834
H   30.087643    9.110338   26.267490
H   12.656141   12.531373   71.507439
H   90.736984   65.296692   26.217972
H   33.066059   96.140434   56.185982
H   68.222282   46.847729   23.247604
H    0.453781    5.760138   71.136116
H   49.567066   22.263912   73.590607
H    9.509418   50.114853   80.782150
H   94.452255   20.141212   66.443260
H   32.628422   36.834270   58.469368
H   21.470356   36.398643   97.180023
H   35.982460   24.861885   76.387604
H   70.110580   20.257147    7.129448
H    8.880541   68.018066   35.993469
H   24.812029   31.632248   38.838448
H   76.392570   66.926262   60.725155
H   72.516411   99.620163   25.720013
