100
TIME:    9.199, STEP:  9199
H   95.231598   78.429543   90.724075
H   46.421860    3.343241   58.132519
H   37.893246   35.716316   15.358114
H   83.020630   53.652031   35.933907
H   12.768255   10.097538   16.283386
H   85.368042   91.242134   89.753693
H   70.849159   82.498665    9.826962
H   96.863037   84.432266   63.573166
H   27.498894    1.845544   21.042547
H   23.501688   48.469013   67.898781
H   44.586456   36.382645   53.653816
H    4.739281   84.789055   38.133720
H   57.159973    5.185755   10.936523
H   99.602570   76.721992   57.289082
H   92.337044   48.332802    8.521774
H   31.652142    7.150769   69.443420
H   84.378090   90.413490   10.809614
H   97.781052   47.215523   80.643143
H   88.544418   64.264877   47.999737
H   44.677364   10.462915   42.643272
H   18.395012   40.428093    7.567678
H   44.297436   56.295792   35.898438
H   62.922295   19.813070   69.156158
H   64.339157   46.874969   23.876116
H    0.576243   56.634666    4.474544
H    4.231844   54.916977   25.214796
H   68.839821   60.087307   82.489365
H   56.356010   85.817932   70.844292
H   11.194415   83.697411   22.330059
H   53.723244   63.164200   14.682785
H   78.095085   46.947559   81.583496
H   46.587727   98.355179   47.666557
H   18.321754   95.440231   26.515524
H   66.781738   30.689148   84.212639
H   52.018089   63.176613   84.727432
H   72.290894    5.937306   90.506569
H   62.101898   67.647713   33.310444
H   83.779976   90.606590   71.588188
H   56.781002   80.987206   52.860809
H   96.750732   51.004242   61.793930
H    6.565396   71.820663   59.068935
H   24.972397   77.677048   49.585369
H   90.453766   18.670647   65.924950
H   91.959755   67.054298   80.163155
H   58.709892   68.957954   43.295963
H   59.383705   38.367657   20.533281
H   13.611075   25.111662   13.770998
H   56.749081   90.116714   37.759144
H   33.925789   70.588295   77.523163
H   18.870810   70.751488   40.338810
H   42.869946   81.539192   50.400833
H   52.200680   10.139736   70.178932
H   99.678276   75.347656   68.610336
H   63.659569   57.117752   37.741951
H    8.356510   64.762253   78.582047
H    5.053102    2.857268   79.471115
H   79.428131   24.113457   30.888998
H   41.079041    8.154852   76.609642
H   15.784321   27.459661    5.277765
H   51.978771   34.854084    1.969139
H   39.981930   50.774143   97.171242
H   72.427422   42.319077   79.130257
H   98.580307   79.559593    2.667419
H   74.719543   91.873856   77.387909
H   97.446381   26.134502   52.231647
H   36.239662   84.964134   90.101036
H   49.515732   66.392975   11.189529
H   44.927979   43.638496    5.968002
H   15.378016   88.804871   83.287689
H   16.851898   10.687330   82.332687
H   29.915928   69.499748   51.807167
H   15.752183   46.157616   30.329132
H    7.199858   63.288464   25.886784
H   27.703846   67.213966   56.580086
H    5.596596   41.860271   98.776123
H   43.128799   97.142082   76.952682
H    2.247947   29.603535   53.890358
H   64.157784   49.227242   22.475914
H    2.640185   26.498356   20.317751
H   48.397453    7.905844   28.419060
H   90.901207   24.450235   29.795113
H   31.581909    4.131505   17.415930
H   99.730324   60.958042    6.008638
H   83.025246   99.337257   23.231091
H    4.416504   73.466721   56.013748
H   39.577091   46.949257   80.589615
H   81.535255   34.509926   62.187004
H    3.973941   68.962502    0.198713
H   46.590824   81.986916   52.954842
H   53.024273   30.804527   53.057281
H    0.483652   70.148285   27.728172
H   58.931744   87.332413    8.806481
H   75.127182    3.529318   30.377375
H   36.312973   71.265610   47.071987
H   97.544128   25.739124   27.468321
H   53.721283   32.472778   92.308426
H   32.428581   95.590675    8.144987
H   20.521112   41.626698   94.208031
H   70.493919   76.525703   74.525368
H   10.597536   42.572613   11.570610
