100
TIME:    2.977, STEP:  2977
H   16.000080   49.015221   96.420486
H   18.459648   66.154572   65.788254
H   30.926710   88.081696   88.393425
H   81.976288    9.997374   76.984436
H   68.506332   11.377179   84.986450
H   81.856819   97.982887   73.568748
H   96.946419   62.360298   23.258217
H   85.899963   46.149754   34.855816
H   80.447594    0.066868   12.695021
H   93.488167   59.128670   24.265604
H   23.341736   86.028717   52.989231
H   42.217705   72.912354   81.023170
H   53.894501   81.594650   29.239647
H    7.677575   95.899910   83.791100
H   16.711964    4.109927    7.669867
H   81.825363   51.349823   85.924171
H   84.714455   78.875626   44.396404
H   64.761803   49.929192   96.336121
H   91.634468    3.240452   20.202768
H   12.314644   42.594715   19.020594
H   87.617325   59.848465   76.440689
H   47.788239   48.035995   65.759232
H   45.996788   70.410469   47.175415
H   42.445969   72.386139   85.975700
H   23.109219   50.069000   58.526283
H   33.008648   38.904408   10.137520
H    5.368389   18.726198   59.041775
H   81.351006   95.396019   65.178001
H   75.902618   19.188757   16.447905
H   15.145068   17.159622   20.051445
H   33.218296   89.008957   73.848183
H   53.726753   70.258156   23.668236
H   80.053802   50.670555   65.988625
H    3.886025    0.898554   46.334229
H    6.770616   33.881866    6.007965
H   31.393311   18.343363   10.406461
H   65.331123   95.510727   43.041195
H   40.945946    4.466650   32.520031
H   19.411766   16.553305   55.818695
H   82.793030   33.486275   72.259254
H   31.794382   58.329540   12.482812
H   64.065361   45.468452   42.662720
H   36.883480   81.352127   16.505745
H   89.257950   62.667358   71.808556
H   98.423241   14.435154   10.860686
H   39.680210   19.698505   95.256966
H   64.992477   86.736664   54.037537
H   56.398403   26.034300   52.777809
H   52.048576   85.894463   25.719793
H   88.318169   76.055199   75.448639
H   43.317493   82.233170   84.805847
H   49.808933   87.495895   78.627800
H   70.632225   39.270386   29.969440
H    7.755009   58.637589   63.183197
H    3.759518   19.480621   25.668821
H   97.291122    9.403267   91.282700
H   84.980583    3.646520   39.124992
H    4.382958   95.746384   36.875931
H   25.066597   64.554291   82.937691
H   62.566086   56.611095   78.937630
H   47.492409   40.127399   82.285263
H   93.255058    0.232634   60.656586
H   76.169624    4.137627   29.328659
H   47.465134   57.988640   46.316647
H   50.485538   23.075649   72.804085
H   18.463203   94.277443   22.207909
H   48.718483   51.283840   10.791518
H   74.723961   87.794556    8.520415
H    5.274253   35.878090   73.521156
H   90.699280   97.876534   95.464417
H   27.499817   92.844292   26.438038
H   28.500196   52.724319   74.584534
H   12.885431   71.050499   85.416740
H   64.678368   60.990326   26.276588
H    5.705514   32.881977   27.075104
H   96.033974   98.369987   95.615662
H   37.247150   68.521133   43.699421
H   71.845200   56.062893   78.849030
H    4.271952   44.774342   50.896324
H   53.527687   46.820667   64.449997
H   69.137833   60.080090   57.916935
H   64.692993   63.669632   37.842995
H    6.153700   56.948090   13.444330
H   54.962246   66.907318   91.514191
H    7.373747   62.672855   59.165657
H   82.775879   18.403770   48.515179
H   65.981819   86.900764   65.498154
H    3.878065   66.948593   64.783058
H   17.463989   28.417185    3.844074
H    3.131204   86.793167   30.638855
H   45.853729   34.181469   96.330521
H   98.558929   19.393480   90.249336
H   76.286118   16.841146   49.220421
H   34.966251   93.809547   27.542854
H    5.118880   83.068146   84.495628
H   39.809601   78.173042   13.683218
H   26.301895   38.524364   65.979591
H   17.794722   41.585052    8.401796
H   66.896049   49.682972   95.681450
H   24.124186    2.240477   10.955358
