100
TIME:    8.860, STEP:  8860
H   18.156536    9.517365   91.034439
H   55.784500   84.974472   36.756214
H   32.066166   11.327991   19.337341
H   82.963730   67.618401   54.516937
H   15.805941   82.925323   25.474033
H   90.623535   91.609398   56.182076
H   88.617485   59.608841   83.316704
H   23.507767   55.103672   94.697517
H   35.832161   34.439880   42.381977
H   32.762062   43.601475   54.625557
H   76.119415   22.743034   86.309258
H   17.678864   67.796638   62.264503
H   78.776810   25.703728   44.624733
H   16.387426   77.766884   31.490093
H   88.219551   78.613960   24.823631
H   45.282318   36.801048   97.583069
H   11.638576   67.989708   79.949104
H   90.528885   63.711357   92.395584
H   83.263062   50.042507   30.140888
H   53.809818   17.662062   19.562555
H   38.511757   74.176788   16.769033
H   11.797174   55.845764   64.767441
H   67.448433   22.568842   78.855026
H   95.835907   42.819550   49.053959
H   12.700438   83.518051    1.972106
H    5.830864   64.910690   57.117329
H   98.070915   74.178543   75.764816
H   84.960510   69.994553   59.639153
H    3.822808   52.940365   38.354393
H   40.724174   71.554367   87.733490
H   64.754616   16.549358    8.404076
H   25.182972    7.721129   79.049507
H   94.442886   20.242504   95.975723
H   52.458450   61.756561   98.494545
H   60.454811   88.843697   64.103760
H   42.821857   79.385376   91.572151
H   29.588612   80.062263    6.598699
H   97.792900   96.808693   47.666077
H   71.090080   88.373863   85.712814
H   28.680811   82.739998   35.120750
H   29.732779   60.188042   51.082241
H   53.541382   76.347656   32.280003
H   87.536346   16.636471   41.439632
H   13.603992   61.363098   47.017628
H   88.116394   82.329460   14.285462
H   63.757248   31.901764   19.156042
H   10.960698    6.674761   10.515411
H   56.728390   86.625122   16.783726
H   24.017426   98.665871   91.044678
H   11.755335   65.589104   64.042839
H   42.893223   14.267616   46.826477
H   35.725536   41.596790   92.432014
H   92.648537   73.382019   88.297745
H   71.511658   62.649986   22.783215
H   35.348946   35.052750   75.700836
H    4.630878    3.213863   91.011475
H   57.936172   33.895088   98.647072
H   66.321960   40.169838   85.341209
H   89.047173   13.135079   31.303061
H   74.349434    8.796460   11.611107
H   18.596090   66.538452   23.601040
H   84.459190   45.474442   94.467400
H   75.566833    2.692124   25.913666
H   51.440868   90.027191   86.590195
H   83.992111   53.211155   20.662016
H   57.065071    1.816820   70.056709
H   76.713943   54.673626   94.822250
H   68.344925   24.250591   89.761841
H   98.481995   13.163231    4.548048
H    9.966994   93.659927   83.051697
H   40.682713   92.564949   55.872932
H   43.667564   57.413475    5.480874
H   29.303177   80.058342   34.579556
H   35.165508   88.670448   76.722694
H   89.266724   41.361103   73.072830
H   35.113655   75.416618   99.764420
H   71.459793   58.945843   47.877060
H   48.233509   71.392387    3.753146
H   86.382637   27.494106   16.533899
H   65.022606   26.373499   57.624290
H   84.264595   20.943125    9.533324
H    6.143945    1.930832   45.776085
H   78.289360   55.288731   73.725212
H   59.701881   70.328590   54.192463
H   20.922684   94.674911   88.876099
H   47.380154   34.495911   57.048523
H   58.894215   59.157982   46.022224
H   98.522209   96.088295    3.713462
H   39.555912    0.862170   55.727425
H   82.996017   44.752792   40.940163
H   86.610374   51.843716   20.569115
H   33.849178   61.836029    2.348087
H   53.396549   93.358879    4.161983
H    3.550411   50.698841   24.214136
H    3.405420   56.105633   19.679483
H   25.721298   45.859802    9.818474
H   59.337120   76.136040   27.642036
H   21.175463   24.853573    1.015146
H   86.643181   75.061821    2.918734
H   89.540329   51.270557   44.228550
