100
TIME:    7.574, STEP:  7574
H    5.123844   27.448715   92.211807
H   91.301773   15.287070   55.671185
H    9.961077   18.807751   34.432972
H   82.747879   20.601879   25.005558
H   27.329432   79.846840   60.342834
H   10.564233   93.002617   28.824387
H   56.015553   72.771240   82.749817
H   24.584831   43.848721   12.773711
H   67.444496   58.084183   23.330166
H   67.886879   25.136415    4.270835
H   95.740005   70.998947   10.183844
H   66.764755    3.336217   53.803261
H   60.780891    3.542213   72.422813
H   80.062218   81.730690   33.624996
H   72.599800   93.485825   86.668488
H   96.988403   49.279297    4.332450
H   15.051193   82.931885   62.879452
H   63.034397   26.287994   36.973274
H   63.228558   96.090500   62.387836
H   88.460800   44.969769   32.005714
H   14.824814    2.200967   51.670330
H   88.507095   54.138580   74.282227
H   84.618385   33.023369   15.648829
H   15.323767   27.435274   44.562927
H   58.694405   85.503922   92.475624
H   11.895290    2.821564   78.135872
H    8.964052   27.634184   50.249889
H   93.469902    9.968406   17.128065
H   75.860069   36.264210   99.145836
H   91.414505    3.382809   85.500145
H   14.139384    1.231409   10.148232
H   43.984188   43.248775   98.100975
H    3.858713   14.332579   80.122688
H   98.120735   79.610847   52.670349
H   92.459602   86.211967   85.860031
H   31.032196   78.656830   95.614449
H    6.244518   27.159773    5.266952
H   50.943916   20.343349   56.916420
H   25.370762   16.392374   10.335648
H   49.806885    3.130321   33.940811
H   17.622309   16.066168   20.784636
H   61.918480   71.304596   66.624657
H   76.469086    8.922054   48.550861
H   95.718918   39.771751   21.281261
H   99.667793   33.060841    4.237316
H   80.357994    7.378134   13.931471
H    0.907089   36.738594   98.166435
H   56.649899   73.379730   37.213726
H   86.426155    5.172174   42.344444
H   84.757568   46.014561   53.958992
H   42.981525   38.423050   33.267120
H   73.224869   60.928654   76.850800
H   65.981148   65.925354   62.984230
H    1.298637   83.627396   66.036026
H   37.742172   22.353790   64.770935
H    3.029167    4.566610   34.789963
H   76.409943   71.001808   76.337837
H   62.080002   61.616585   18.466120
H   87.618385   58.797237   30.030090
H   59.211670    9.950246   48.188011
H   37.474773   26.345940   23.867653
H   30.101875   57.444351   52.655830
H   88.259499   90.446564   14.098541
H   63.134113   83.021851   21.504353
H   32.947235   55.922321    0.902187
H   36.064514   65.747368   94.017838
H   79.892090   10.216082   32.735699
H   57.177788   50.702812   28.283600
H   34.389389    5.566986   85.204651
H   83.848763   29.066965   85.779266
H   81.523369   80.067047   71.296455
H   49.566486    0.112698   11.217843
H   13.151987   43.671055   67.554749
H   63.471401   70.059937   53.131958
H   27.317907   39.467503   75.567505
H    4.708902   92.995018   86.295174
H   54.663776   70.252388   25.067041
H   87.820618   55.476101   32.723377
H   24.714415   31.271496    2.182180
H   28.088608   96.427299   68.414345
H   59.088539    7.638864   32.670532
H    9.643937   93.589157   53.362766
H   96.946770   33.782139   51.253235
H   71.227516   60.282833   71.648643
H   83.539047   75.121056   13.538543
H   76.976852   87.259979   67.744736
H   73.005119   52.660973   84.700844
H   77.839775   98.994568   17.047333
H   12.865384   72.464134   66.245247
H   96.695007   97.659439   94.969910
H   33.982014   82.405403   93.410812
H   38.698200   65.116531   77.840080
H   70.961517   54.778103    4.713626
H   79.263618   72.678673   37.501919
H   25.642708   71.297531   90.129486
H   19.502975   96.643616   76.241890
H   61.413780    2.336197    1.600724
H   23.657747   61.219296   26.833849
H   47.905083   69.508568   10.634808
H    9.662374   84.272324   68.113647
