100
TIME:    4.282, STEP:  4282
H   27.747707   29.340027   95.225723
H   82.217354   36.899323   48.100128
H   53.358391   81.968498   73.080544
H   82.195328   56.232109    5.451320
H   56.817566   15.978686   49.601547
H   61.624325   96.569084    2.806454
H   28.551136   50.479626   25.310984
H   83.329536   59.048382   15.034365
H   48.368202   74.596512   30.549936
H   57.824486   77.866539   75.369385
H    1.953822   38.537952   27.285904
H   92.407585   38.325035   88.131966
H   70.823868    2.648575   99.541016
H   43.061089   91.877541   83.102219
H   32.587196   87.542114   44.940983
H   29.355095   37.209770   77.597595
H   79.774117   65.190323   63.195702
H   92.639610   86.466881   51.091579
H   11.961960   57.990364   88.955048
H   77.152275   14.883089    7.871044
H   10.176758   29.930737   41.022423
H   72.899857   49.768402   54.626419
H   28.573158   59.796989    9.836520
H   21.197334   88.037537   89.054245
H   76.435455   46.576096   68.163368
H   27.026548    0.066763   87.758583
H   92.837090   64.481644   84.930214
H   71.238373   56.308990    8.310390
H    4.278535   37.588223   54.759499
H   65.184097   84.859978   23.795078
H   84.579170    6.031214   70.600731
H   36.125195   34.204453    2.857874
H   71.976540   55.190636   83.553329
H   59.026337   81.303040   91.357964
H   74.332077   35.233849   85.472366
H   44.864338   20.813801    5.966195
H   90.498581   47.720200   45.870106
H   87.009224   80.589638   24.610622
H   64.330261   88.120842   29.354315
H   59.876060   11.316443   74.933899
H   42.606979    3.111354   43.227764
H   46.779373    4.035506    3.973781
H   48.124210   89.177826   10.767618
H    5.924745   84.532135   99.406372
H   85.223656   62.943199   22.533167
H   22.844006   44.589405    0.554608
H   75.187790   57.707726   66.570549
H   56.468098   39.473175   33.523796
H   90.198227   77.814056   73.664764
H   15.683940   95.908180   84.175636
H   43.217930   56.244148   98.565536
H   13.229906   66.402618   92.955933
H   97.693611   46.837219   54.178341
H   77.530052   37.340935   20.769001
H   99.855286   33.852482   36.767323
H   98.923965    8.029501   46.857422
H   67.710709   65.991386   63.241280
H    7.209203   72.505516    3.259933
H   27.988981   19.693836   82.752022
H   76.450348   56.917843   41.820320
H   29.812918   79.438622   80.537148
H   46.938072   88.085831    1.605911
H   64.766731   15.086902   39.840874
H   37.076637   65.089050   10.881962
H    2.281381   18.847397   94.332726
H   38.294991   29.401802   99.369064
H   44.015945   96.403259   73.797043
H   84.578636   62.429459   70.906960
H   70.317825   42.109116   91.672546
H   17.140055   63.516525   92.716461
H   86.059105    4.052242   10.781662
H   20.896954    9.413775   70.130791
H   27.797468    6.502331   51.959785
H   35.946835   78.406731   48.731834
H   68.622200   34.743816   26.002958
H   26.886408   82.009239    7.805799
H   55.733482   55.411884   66.778267
H   33.156475   70.732124   50.919739
H   66.848518   40.941143   65.461479
H   89.527740   75.747826   52.023064
H   94.665939   73.580917   35.913494
H   62.609818   72.192276   28.719698
H   88.718513   78.732605   37.739391
H   44.744507   78.578926   72.321732
H   43.831863   81.043434   32.660446
H   52.743763   66.341743   39.138382
H   53.139824   92.016632   27.725920
H   24.881006   62.466957   51.211967
H   44.547958   55.757103   93.169563
H   87.752243   33.102745   77.287384
H   99.259644    4.647994   23.889811
H   95.121063   17.529282   15.118311
H   59.937996   55.999512   50.138165
H   61.100277   72.968735   15.532297
H   82.556892   66.175102   14.482978
H   47.597244   26.639442   46.278160
H   22.717274   13.415656   90.926956
H   22.583731   52.696350   87.516335
H    4.728604   55.308315   86.374382
H    5.183414   68.747871   85.241592
