100
TIME:    0.071, STEP:    71
H   12.521182   15.510142   99.081009
H   99.295189    8.594265   82.479187
H   80.984314   79.011940   22.506210
H   81.488525   29.725672   36.271454
H   94.535110   78.448486   63.780190
H   26.915356    1.136377   85.776909
H   49.248615   66.133186   96.004776
H   14.305838   94.744873    1.674389
H   51.882683   79.466980   95.617393
H   72.900291   17.406689   10.468935
H   93.650787   69.099365   32.910675
H   53.132084   27.249352   87.875526
H   38.746033   57.411804   18.072323
H   51.566563    4.858357   62.644417
H   81.366600   63.679062   47.360218
H   98.667419    5.527931   27.146534
H   18.357718   86.692451   79.819160
H    2.662032   91.247787   97.084763
H   46.369881   81.332199   67.101669
H   90.727486    4.043676   21.031778
H   60.063309   49.149673   55.314110
H   69.155739   44.193649   13.209789
H   84.796074   94.044777   30.319721
H   12.444904   37.533298    1.801055
H   27.043325   80.542107   37.082535
H   46.328465   25.498852   82.515587
H   55.957088   39.525921    1.375270
H   26.549774   59.753216   69.123093
H   12.714921   55.533535   53.815857
H    3.716523   89.082413   89.033226
H   18.894686   28.409174    3.793682
H   70.240356   50.548462   92.691277
H   75.359680   63.287498    4.193196
H   81.102013   67.215973   68.760292
H   79.007011   53.553146   29.052002
H   78.728233   90.063286   20.400030
H   86.610008    1.933799   14.058943
H   61.053734   57.654743   27.451815
H   47.529232   78.992348   35.321831
H   56.505329    5.536003   43.620392
H   30.389553   58.615108   44.010784
H   25.240097   15.043011    6.136056
H   11.853318   63.925701    6.602005
H   74.825806   13.961732   87.673477
H   50.496216   29.090614   62.183128
H   77.044655   64.538872   83.596718
H   36.829762   29.570629   28.229925
H   56.243206   96.112915   72.971024
H   67.102592   26.569019   41.642235
H   27.378881   31.830059   78.698746
H   43.533962   62.790375   54.174580
H    8.583875   57.151367   69.401962
H   10.352182   22.420410   98.745918
H   75.040421    6.043873   34.948750
H   35.107407   64.730026    1.008652
H   93.655075   12.457767   90.209793
H    0.753789   87.498131   62.740135
H   20.773153   70.181435   11.726173
H   95.877312   41.768967    6.032348
H   54.337517   33.245178   61.581100
H   64.179489   75.268173    8.860669
H   96.391205   27.284500   92.141586
H   79.049370    2.311465   28.687225
H   47.915154   42.180702   25.213194
H   35.139572   55.174282    2.172905
H   96.983864   38.743549   50.383938
H   81.871941   50.816143   70.490158
H   75.461266   21.597862   69.596809
H   60.442627   44.684715   55.780598
H   31.825130   51.715569    1.581463
H   19.778299   90.573402   61.295872
H   68.111839   49.169182   61.821041
H    2.361986   14.795238   59.929134
H   28.628197   44.887135   98.988869
H   65.593307   28.744722    6.780001
H   27.336325   12.122599   91.152451
H   73.401947   20.390354   92.288147
H   35.316040   46.077610   18.361031
H   64.957771   53.291874   18.480129
H   96.043472    5.086959   14.804342
H   12.271532   30.015455   84.232285
H   46.651386   44.691238   80.843567
H   22.288361    8.442418   36.662170
H   55.054825   18.237156   56.945137
H   48.873924   44.444443   40.869545
H   49.664799   11.656775   46.715427
H   71.896645   98.190636   26.928753
H   57.098129   99.609764   95.000023
H   57.156685   90.219368   27.620144
H   60.057503    6.365799   26.749975
H   26.928194   77.264572   34.961132
H   83.539909    0.846647   34.877792
H   89.839806   29.758848   24.407545
H   54.090897   17.538866   31.606220
H   55.364185   43.370289   17.718887
H   99.785858   92.927910   63.781670
H   56.966606   71.754951   33.105614
H    7.126079   16.842194   54.899147
H    5.329763   37.156345   39.104290
H   43.650860   76.879005   90.847519
