100
TIME:    7.851, STEP:  7851
H   86.391350    2.047169   91.958206
H   83.651474   30.298115   73.136856
H   14.722437   38.735870   31.180805
H   82.794373    9.188774    9.822035
H   24.847311    2.049590   52.832016
H    6.268336   92.702522   56.257561
H   41.499004   91.474319    4.411594
H    2.813179   67.812248   87.340950
H   60.635307   31.451820    5.894003
H   60.321114   29.113726   15.117474
H   69.974136   82.144714   83.501205
H   56.192253   17.220394   34.085777
H   43.117577   86.775299   44.895885
H   66.346626   80.876900   54.705585
H   75.964241   68.742813   73.345978
H   85.851089   25.051941   81.339142
H   92.776222    1.254444   88.095856
H   68.956329   12.809223   27.371849
H   67.543625    7.710888   76.982346
H   80.996475   39.088337   50.865181
H   98.387260   74.625916   44.153172
H   15.063355   54.506302   50.693100
H   80.920036   30.771124    7.723268
H   89.586838   30.748995   23.989952
H   48.787056   63.537796   94.521339
H   10.589245   94.655991   52.068939
H   85.078644   16.119638   55.746693
H   70.096336   22.897833   26.284121
H   81.883095   61.396076   86.051567
H    2.036039   96.526871    7.520884
H   25.041151   26.070320   88.232948
H   61.474209   35.596363   72.457680
H   23.370474   94.066277    5.077038
H    9.824876   54.225380   41.000473
H   85.565880   65.239159    2.712095
H   55.111576    0.352419   94.743752
H   32.812351   17.014673   27.093290
H   39.495941   15.273518   76.464073
H   13.677745   10.357725   83.492317
H   23.717339   77.199417   55.735710
H   98.691864   25.569868   27.310637
H   38.574501   72.390854   80.767143
H   78.852936   10.583670   68.558357
H   78.030243   44.421104   48.364162
H   75.639091   22.132748   27.941620
H   76.782219   12.660464   15.056826
H    3.072472   51.802498    0.825546
H   56.666805   76.232742   54.352932
H   94.524483   82.230171   31.293846
H   90.573486   50.230679   34.590210
H   42.962505   11.680014   36.187759
H   86.686859   35.224072   58.667603
H   71.725212   67.531494   46.897469
H   94.882965   79.109070   78.259598
H   15.686550   46.629333   67.125198
H    3.374170    4.275233   25.360229
H   93.971817   63.009148    2.682806
H   41.453781   35.457634   11.330766
H    9.465733   70.501869    8.764584
H   40.933372   31.242168   40.309471
H   54.947887   13.464167    2.271071
H   20.270607   54.866074   40.121597
H    7.064493   71.544830   95.103821
H   82.154289   84.530777   13.983109
H   43.942955   33.797741   26.698698
H   19.048687   51.976830   10.396567
H   57.668182   19.792374   46.108929
H   38.043587   66.544426   41.525803
H   48.195854   85.663551   67.832977
H   89.474480   42.979099   85.191757
H   72.727638   61.220261   67.974281
H   26.756939   90.915428   31.521654
H   95.090790   29.970098   60.452732
H   57.374409   52.529034   36.673248
H   40.661179   39.875378   96.569901
H   11.257754   10.747849   67.655495
H   79.821007   46.277069   29.979506
H    0.834498   37.364758   48.021862
H   37.996773   30.457859    5.273472
H   14.505042   81.338036   44.550484
H   64.511375   10.504556   49.226456
H   30.429554   95.385498   30.189884
H   14.467534   38.414585   77.632996
H   90.285637   83.986084   46.349186
H   70.051697   57.792408   86.686684
H   70.603012   97.433609   86.980377
H   91.505318   32.520821   97.909233
H   82.294701   76.829834   14.175301
H   18.614731   57.040962   63.979744
H   72.205597   86.264297    4.872372
H   45.317982   97.363640   99.260544
H   59.193394   85.949860   83.119209
H   88.717819   63.089878   26.134462
H    6.035143   89.483971   56.179638
H   20.852818   46.485397   96.494873
H   42.382019   85.704956   61.934563
H   39.426567   18.232155   85.670296
H   23.123072   74.926003   21.272589
H   34.709373   70.704720   87.433586
H   26.867289   77.163040   41.428799
