100
TIME:    8.287, STEP:  8287
H   56.905998   62.063713   91.559036
H   71.609848   53.925648    0.626397
H   22.216852   70.103973   26.063114
H   82.867554   91.225273   85.924141
H   20.940435   36.996845   41.009933
H   99.506714   92.230171   99.435036
H   18.648880   20.915430   38.507359
H   68.544434    5.533407   47.309471
H   49.917595   89.531326   78.450653
H   48.412544   35.374043   32.190285
H   29.418472   99.688232   41.503662
H   39.550194   39.074947    3.051802
H   15.315371   60.383972    1.568199
H   44.758186   79.533028   87.884193
H   81.259895   29.797134   52.378098
H   68.320877   86.917564   45.147736
H   57.715797   30.091473   27.786657
H   78.276947   91.593697   12.258484
H   74.336166   26.002842   99.954575
H   69.247574   29.830530   80.550117
H   72.514397   31.220325   32.321110
H   56.863102   55.085098   13.563644
H   75.098808   27.226828   95.248688
H   49.076515   35.964813   91.609070
H   33.192818   28.959702   97.741310
H    8.533520   81.802719   11.038347
H   47.482025   97.995255   64.398544
H   33.308952   43.248844   40.696823
H   91.363380    0.953789   65.441093
H   18.753613   85.735977   42.180969
H   42.201458   65.166039   53.738014
H   89.003624   23.551411   32.094948
H   54.082806   62.165947   44.355362
H   28.247952   14.268507   22.632853
H   74.715111   32.227806   29.239920
H   93.012756   34.503212   93.373268
H   74.629570    1.046252   61.448513
H   21.475773    7.294277    7.232738
H   95.274010    0.859132   41.240181
H   82.650391   36.382042   90.038513
H   68.893829   40.528763   37.582607
H    1.830589   74.100632    3.027257
H   82.605133   13.199064    0.052864
H   50.190273   51.741112   90.994293
H   37.819969    4.931742   65.252251
H   71.153923   20.974842   16.828142
H    6.480801   75.513191    5.012830
H   56.693417   80.723404   81.330162
H    7.269637   46.120247   13.901579
H   99.727783   56.866879    4.104857
H   42.932568   69.587090   40.784866
H    7.876592   94.766556   30.047005
H   80.766411   70.059570   21.576105
H   84.783966   71.997192   97.499588
H   80.971413   84.838058   70.830826
H    3.917207    3.816604   10.517761
H   21.612190   50.428642   44.150169
H    8.988961   94.282036    0.099882
H   43.853130   88.923561   75.293747
H   12.163089   64.755737   27.908592
H   82.450699   93.187988   68.275276
H    4.796120   50.807846   20.393604
H   36.664883   41.793365   65.205994
H   12.092815   86.905838    2.145020
H   61.250298   98.974548   67.301147
H   92.265541   30.301903   36.176472
H   22.687147   34.865711   67.158493
H    7.925993   91.479240   62.369125
H   69.926422   54.335365   40.486977
H   98.329399   64.877029   84.267014
H   58.881863   31.553394   62.745155
H   90.853195   76.438866   63.478558
H   66.663239    8.403280   49.272648
H   47.777699   24.935986   10.768484
H   61.664169   40.517376   29.627447
H   21.565935   38.691803   38.319420
H   19.419224    8.538879   37.712990
H   21.316435    8.857372   72.102905
H   58.903297   29.177189   10.139187
H   93.123528   57.587425    6.988783
H   73.046959   15.015176   75.285599
H   63.144936   98.212952   93.713860
H   42.045792   45.706089   19.154774
H   20.282127   21.295763    6.528477
H   48.822510   30.519123   44.421242
H   60.569401   13.448375   17.257828
H   20.624849    0.819755   18.699455
H   89.306786   41.940277    9.654701
H   27.664246   32.764778   60.413826
H   33.656467   68.328262   20.457785
H   63.160877   20.905598    8.468406
H   91.452980   18.741043   91.428596
H   16.666004   76.169579   59.851013
H   48.171860   15.935536   85.578499
H   13.313496    7.429953    6.513493
H   78.393799   68.487427   39.414726
H    4.819572   43.252541   60.595772
H   22.281488   96.501137   12.519125
H   13.939315   72.587471   50.914997
H   53.947643   65.972977   99.426483
