100
TIME:    7.569, STEP:  7569
H    5.461969   27.907223   92.216385
H   91.439865   15.016122   55.355900
H    9.875132   18.448044   34.491680
H   82.747040   20.807892   25.279625
H   27.374235   79.446068   60.478409
H   10.641776   93.008034   28.329220
H   56.277584   72.433640   82.358810
H   24.977821   43.416172   13.232800
H   67.567406   58.564911   23.644897
H   68.023445   25.064623    4.075051
H   96.205093   70.797760   10.665468
H   66.955566    3.085601   54.159172
H   61.099724    3.844843   72.919716
H   80.309792   81.746101   33.244480
H   72.539070   93.932449   86.908966
H   97.189438   49.716614    4.747504
H   15.453272   82.601151   62.424282
H   62.927471   26.531296   37.146576
H   63.150700   95.880768   62.124432
H   88.595535   45.075932   31.665293
H   15.121521    2.698745   51.806019
H   88.027740   54.131943   74.708023
H   84.685143   33.064034   15.791890
H   15.788340   27.375460   44.934288
H   58.873238   85.900421   92.438698
H   11.918865    2.968945   78.606377
H    9.395208   27.842028   50.150669
H   93.891808    9.735023   16.962793
H   75.751350   35.810566   99.382195
H   91.222778    3.506567   85.102654
H   13.942594    0.783055   10.543816
H   43.668484   43.386906   98.563850
H    3.506512   14.698389   79.672249
H   97.909477   80.069069   52.880997
H   92.584038   86.590538   85.555847
H   30.597569   78.265213   95.630165
H    5.764958   27.342897    4.872979
H   51.150558   20.434864   56.563599
H   25.581829   16.501303   10.820171
H   50.277809    3.598413   33.547401
H   17.964010   15.894620   20.666838
H   62.339851   71.284988   66.369377
H   76.426056    8.892061   48.189724
H   96.038208   39.687828   20.792389
H    0.101518   33.258099    3.809441
H   80.422539    7.282781   13.911158
H    0.868002   36.466682   98.118446
H   56.649593   73.328232   36.904354
H   86.279976    5.586264   42.543915
H   84.652588   45.938457   54.308609
H   42.981869   38.905762   33.214401
H   72.981873   61.392635   77.179016
H   65.877464   65.896362   63.274605
H    1.414413   83.708954   65.815384
H   38.140274   21.915615   64.728439
H    3.022939    4.571870   34.960175
H   76.092941   71.146080   75.862297
H   62.452316   62.088768   18.594923
H   87.224022   58.585941   30.413944
H   59.541603    9.565915   48.330223
H   37.159374   26.578465   24.257477
H   30.279335   57.490891   52.882080
H   87.920067   90.787750   14.441406
H   62.790752   82.994614   21.640118
H   32.748756   56.321682    0.436546
H   36.371674   65.995934   93.722198
H   80.293243   10.043228   32.494305
H   57.523170   50.416862   28.044571
H   34.140175    5.926254   85.518219
H   83.747215   28.815844   85.789871
H   81.682137   80.407242   71.356422
H   49.978207    0.278722   10.851356
H   13.478010   43.918362   67.682922
H   63.581455   70.376404   53.429047
H   27.077066   39.460140   75.188400
H    4.590689   92.674583   86.631630
H   54.209675   70.685127   24.978369
H   87.585709   55.803020   32.447231
H   24.474661   31.286182    2.126381
H   28.333797   96.699669   68.845100
H   58.990654    7.587136   32.371689
H    9.268752   93.556732   53.781048
H   96.630531   33.698521   50.777046
H   70.883507   59.854977   72.105339
H   83.782501   75.433861   14.023229
H   77.091904   87.076340   67.397522
H   72.671181   53.024513   84.462425
H   77.759361   99.394653   17.099174
H   12.761605   72.742531   66.286140
H   97.137054   97.865128   94.791153
H   33.777393   82.135399   93.305222
H   38.328251   64.740479   77.744789
H   70.641006   54.628071    4.326968
H   78.780373   72.375328   37.164776
H   25.729168   71.745377   90.014587
H   19.089996   96.841064   76.500145
H   61.810661    2.049265    1.888286
H   23.667398   60.971912   26.934233
H   48.143272   69.486977   11.053623
H    9.351810   84.400650   68.595291
