100
TIME:    2.502, STEP:  2502
H   48.121979   92.575249   96.855362
H   31.672615   40.399376   35.825336
H   22.761923   53.907730   93.967079
H   81.896561   29.568583    3.019272
H   72.760864   73.303848   97.866013
H   89.220711   98.497490   26.527040
H   21.841007   30.284607   86.112511
H   23.234032    5.057435   78.469002
H   92.124001   45.736343   42.595264
H    6.468294   52.308372    5.663863
H   67.525085   66.915939   98.744507
H   60.348389   49.102921   14.834028
H   84.109886   10.332973   76.450066
H   31.196770   97.363991   47.644062
H   10.933556   46.538300   30.502966
H    0.923718   92.894928   25.353956
H   22.910370   47.458260    1.154603
H   54.611359   73.028328   12.804817
H   84.234337   83.315384   95.178497
H   25.110855   52.680202   86.680458
H   15.804398    7.134748   89.334747
H    2.249527   47.405426    6.209844
H   52.338722   74.273613   60.765274
H   86.578583   66.689270   21.253204
H   40.097404   87.742371   55.021912
H   35.186649   53.055981   54.658669
H   46.328857   38.471951   49.615849
H   21.430696   73.224617   49.475643
H   65.574326   76.093086   38.900719
H   96.931831   28.915756   82.290642
H   14.524915   46.413906   11.429298
H   23.734840   83.384148   67.641396
H   46.595493   85.424355   23.196875
H   83.816338   44.429337   66.345749
H   18.578636   69.788086   77.082237
H   90.093277   81.030083   12.039056
H   19.773701   12.907045    5.613164
H   60.576950   13.160351   99.001564
H   39.463150   26.901529    1.850206
H   27.533331   77.954781   34.886127
H   64.255547   42.032581    1.290844
H    6.755693   24.148682   20.347307
H   32.792027   78.503693   82.195213
H   19.589464   54.705513   25.366610
H   39.625614   33.174740   70.213844
H   45.808331   10.638599   93.329018
H   61.278889   60.905060   49.474968
H   56.373035   21.143763   23.387474
H   38.165176   25.233944   44.668892
H   78.359520   68.829018    8.672260
H   43.353733   28.091879   79.797531
H   26.724707   31.571907    9.809422
H   60.781113   36.516174   57.558533
H   18.753735   66.388130   42.222198
H   41.576462   77.844238   21.636183
H   96.696793    9.902468    7.452820
H   54.866558   17.353157   93.948372
H   39.752533   40.604843   49.110428
H   87.604469   44.484783   19.402964
H   93.913193   20.099676   92.447762
H   17.528612   62.215450   19.320652
H   10.112644    4.654764   82.147247
H   43.942120   36.536079   61.911301
H   14.846800   55.404755   59.214329
H   31.630096   61.014484   28.567240
H   47.643349   17.891060   94.123116
H   86.828072   34.863667   87.858353
H    7.535524   60.629333   85.812668
H   81.601860   70.008568    3.310447
H   81.074036   73.987373   96.464630
H   42.583290   25.163778   32.136761
H   67.664856   68.488556   39.806473
H   43.856934   94.548271   97.593254
H   75.129875   91.047836   54.507256
H   82.802635   32.204296   91.066147
H   84.806938   67.928703   27.577084
H   94.120148    9.689787   35.299076
H   49.528835   87.121178   52.617214
H   81.492279   46.169567   45.594467
H   76.822517   72.690918    5.371704
H   59.844372   55.165997   29.526970
H   29.051392   60.567520   77.561623
H   76.103226   49.018860   68.203033
H   22.284977   26.260958   34.899750
H   30.503361   92.382263    5.211638
H   93.705750    0.956171   15.529860
H   34.257652   21.437149   42.848389
H   96.232422    4.978352   69.726143
H    7.605735   54.864616    7.730321
H   45.128330    6.334747   13.658904
H   26.414795    8.533029   86.299393
H   63.413685   83.674126   81.196678
H   45.816807    2.602790   12.476582
H   89.055397   64.999046   95.515938
H   13.332432   25.615562   73.580254
H    0.576498   96.930672   38.217529
H   64.005325   11.265077   93.297020
H   16.051596   37.540710   16.002151
H   89.524071   47.635433   35.469414
H   94.623947   14.437380   56.707428
