100
TIME:    6.104, STEP:  6104
H    4.534101   62.254265   93.557632
H   31.896629   35.630901   62.983677
H   84.685974   13.050296   51.693180
H   82.501144   81.165070    5.581119
H   40.498077   62.019943    0.201675
H   33.364086   94.595177   83.246117
H   33.059963   73.509743   67.793831
H   40.123932   16.675991   47.745373
H    3.579955   99.418564   15.861493
H    8.038439    4.028063   46.714024
H   32.475815   11.850132   51.780838
H   22.867775   29.652409   58.439537
H   54.557968   92.468987   18.497490
H   52.847054   86.261635   21.756908
H   54.745003   24.793476   57.360058
H   56.095459   77.850807   26.355911
H   33.259834   85.702950   29.059546
H   31.598166   97.818604   87.929237
H   40.338314   34.423897   84.944519
H   28.064980   76.186073   31.921289
H    2.056710   48.545383   91.570580
H   47.576767   52.187134   99.466324
H    4.245423   44.978783   57.708023
H   51.908878    9.849825   53.737972
H   11.270667    2.081184   81.619301
H   18.720846   46.210617   16.425041
H   35.723969   88.740921   21.079130
H   17.504261   41.353783   68.540878
H   43.896721    2.894919   68.632843
H   35.046864   39.765923   68.639114
H   56.287819   69.412254   26.449883
H   51.167484   83.864532   34.186180
H    0.313980   21.884478   47.693481
H   36.010902   14.327451   14.599562
H   29.042957   97.503517   96.419128
H    3.248221   63.520241    0.235232
H   65.251106   80.993286   89.436745
H   11.703926   47.248638   53.182941
H   87.420288   48.420280   52.789192
H   88.264801   40.747334   18.284056
H   18.086456   65.623543   86.153297
H   85.802032   65.539978   91.579765
H   63.818165    0.103858   42.372238
H   89.582962   15.098288   77.552208
H   27.179302   91.059921   78.445908
H   99.334129   79.341293    7.959372
H   89.422165   56.794449   84.057701
H   56.565403   58.239197   46.258839
H   43.454834   26.916687    0.981839
H   53.897121   23.638136   56.741196
H   43.082462   80.341522   17.772850
H    1.776117   97.333557   73.346474
H   35.487720   57.401794   48.358685
H   35.336800    7.608197    1.169912
H   54.785545   93.530045   52.266666
H    1.198284    6.112907   84.832230
H   83.218773   13.418553   36.528725
H   71.539215    0.439692   56.330673
H   71.685516   96.677513   42.877953
H   56.216644   96.961044   89.998314
H   44.745960   94.708145   38.479786
H   82.275032   71.126907   19.166634
H   88.461082   90.756752   14.900848
H   62.191681   75.014191   61.419285
H   74.602264   73.328598   64.007988
H   26.367775   38.825066    7.099672
H   97.832687   59.391247   61.763443
H   58.720741   66.631569   58.009098
H   61.126431   11.191811   77.401001
H   54.049362   55.156792   88.879852
H   28.203697   80.084732   88.926765
H   70.663589   48.945160    3.527687
H    8.998714   16.378174    5.239342
H   95.838310   63.095531   40.474083
H   56.468105   37.343258   64.122696
H   69.962929   98.781425   85.207520
H   21.158237   97.491554   99.000221
H   18.757351   51.595497   51.541893
H   54.220570   35.589352   85.784386
H    0.179659   76.505714   95.056206
H   30.318110   92.430344   44.810459
H   99.335098   84.056091   76.341301
H    3.965500    9.199176   11.257053
H   70.094078   34.491966    5.911619
H   55.115227   67.077675   56.038025
H   10.805180   33.263573   65.663483
H   74.827080   59.542259   14.605780
H   54.198112   16.625059   32.288803
H   82.358017   54.311058   78.267952
H   26.662809   58.142635   42.420044
H   73.823479    3.030796   62.367107
H   29.933084   54.558304   49.830162
H   76.731689   10.668683   91.036270
H   37.195484   83.495796   38.382294
H   51.057777    2.969700   56.349277
H   98.086929   54.691071   52.169449
H   78.095665   17.976397   86.142517
H   26.495195   88.484543   56.342049
H   17.932373   63.162243   33.763306
H   18.354654   21.996731    9.722342
