200
TIME:    0.911, STEP:   911
H   30.089434   60.248089   26.813261
H   33.944519   42.673992   17.137617
H    4.074083   98.507713   78.398552
H   40.460480   84.816566   26.953213
H    8.085964    0.735658   44.011135
H   67.789795   34.603001   45.688816
H   13.080817   54.828033   62.639088
H   17.925362   17.860203    1.254999
H   14.677853   77.446754   31.350328
H   87.240723   65.498596   69.605553
H   35.581413    8.927857   14.165901
H   33.552475   59.932796   44.714306
H   27.643040    9.277891   33.790672
H   72.689117   56.037922   74.599449
H   87.226273   77.109985   41.327610
H    9.742217   98.319626   39.848118
H   15.778306   39.143417   82.860016
H   20.629198   15.424810   31.574471
H   87.350792    5.409690   52.361568
H   92.191010   70.489891   11.459326
H   66.137772   10.253672   95.099251
H   75.090843   74.462181   44.716988
H   74.911865   57.662743   33.035934
H   22.820753   94.176773   89.482040
H   32.411476   39.690563   21.467274
H   18.105646   92.115242   84.794998
H   11.890198   72.260582   76.060699
H    9.910064   97.809616    2.496850
H   39.329819   36.134346   34.409283
H   62.727558   38.740051   75.414886
H   12.485448   79.482674   17.015184
H   19.724144   79.232895   10.123693
H   10.910400   23.423622   81.375191
H   74.218925   64.309982   50.018669
H   15.787251   62.074932   29.114399
H   11.136378   34.623932   87.163658
H    5.523152   59.946434   90.992348
H   99.724785   62.112381   84.998604
H   28.236412   22.373583   59.346783
H   83.647758   36.929173   37.485443
H   80.703964   73.878365   23.796223
H   46.737778   29.036156   19.934111
H   64.620255   72.367645   75.244034
H   35.786423   95.823509   42.745872
H   51.703716   96.767326   68.578316
H   31.617146   96.375946   49.985474
H   92.618881   93.337692   10.890216
H   73.780060   65.540367   23.525406
H   13.030318    3.288962   61.650108
H   38.105209   20.829584   77.325447
H   62.246185   62.003159    1.276681
H   95.488594   47.247173   77.967979
H   70.275719   75.233665   16.695364
H   12.419843   96.343750   91.639771
H   48.796890   61.462105   69.072540
H   96.704399   55.818493    0.620416
H    3.515577   19.284645   42.456821
H   74.739548   74.177971   93.191811
H   14.022392   87.439590   23.355091
H   27.584061   92.221352   54.590111
H   48.246365    2.285036   22.631441
H    1.996272   18.014433   54.210449
H   89.933189   39.106056   62.247070
H   40.384392   66.109650   18.649113
H   82.134789   86.082230   45.368519
H   12.417831   42.629478   44.924423
H   61.110939    9.008020   99.698250
H   93.583839   92.975487    0.556247
H   40.389603   14.920850   53.486847
H   41.374435   53.325081   50.946758
H   58.170803   88.197639   91.229691
H   13.282190    6.184806   40.067848
H   98.790176   37.263485   77.027046
H   29.725918   94.215759   80.107521
H   87.315475   11.733506   36.062325
H   70.274078   95.387756   58.492771
H   92.591476   54.929935   62.653984
H    1.702506   18.188484   25.022728
H   16.636101   59.582695   20.063358
H   58.163948   86.924721   62.439911
H   71.846893   18.761467   91.171677
H   56.141449   56.522415   67.113731
H    8.381819   21.026608   70.647110
H    2.792873   83.801018   15.720728
H   15.013775    6.419440   38.766468
H   43.570812   62.297104   13.814847
H   65.928520    4.182324    3.309669
H   69.751427   93.570938   36.750607
H   86.224106   73.690361   79.587219
H   20.083294   16.124207   47.483440
H   13.115491   40.685310   77.769920
H   79.381485   94.422684   13.008945
H   79.136375    9.294458   76.619392
H   29.938953   70.326752   87.529114
H   42.126694   47.849640   95.886169
H   41.484383   42.711475   97.512695
H   88.407753   91.069649   27.227524
H   97.070740   40.350201   56.734241
H   21.813515   63.056358   55.259174
H   78.871368    8.830213   27.414225
H   39.803921   98.978821    0.536292
H   15.522701   86.808189   62.163330
H   37.088600   12.647469   39.879089
H   54.117805   69.178360   16.809275
H   24.449257   18.654697   46.842102
H   13.988037   93.921135   12.475315
H   88.822647   36.942959   51.348846
H   60.797005   60.037373   92.795631
H   89.849030   31.619732   31.578861
H   25.921644   18.704824    8.821310
H   56.022816   90.235870    1.267948
H   12.936061   80.218689   98.154312
H   45.439899   88.061150   79.340179
H   60.951195    4.931486   57.651608
H   41.458336    9.909588    3.245180
H   86.654922   86.169090    9.205211
H    4.986649   17.891190   92.002426
H   37.366764   60.023796   20.565880
H   44.344433   82.905800   50.377731
H   88.490372   60.067013   74.374756
H   47.557808   26.218365   65.532333
H   89.337791   11.584530   67.925209
H   48.413460   93.522598   43.935127
H   94.191582   43.173183   88.480797
H   56.838387   92.339081   70.620865
H   72.304527   80.711464   12.575991
H   78.707878   52.322952   45.140747
H   60.751572   92.832634   40.669666
H    0.725214   28.195038   69.598846
H    0.268256   20.968966   77.933060
H   75.695297   61.227264   29.054035
H   55.944687   92.706497   25.150814
H   90.246681   15.240063    2.367276
H   68.018669   30.206627   57.965153
H   37.573895   89.237350   25.583199
H   44.486519    0.765684   73.796188
H   70.003609   88.274376   88.742249
H   96.941750   43.270119   72.596252
H   63.852036   53.717354   71.391388
H   43.811417   76.909309   76.812912
H   83.836952   43.336231   36.585129
H   26.348532   61.398533   61.888985
H   33.435230   69.110298   76.751717
H   26.966423    2.238565   89.243599
H   71.842094   47.513374   71.009964
H   70.526367   73.535614   97.709358
H   60.601158   93.839302   42.477409
H   24.330383   48.441513   64.975243
H   83.123383   36.776852   91.273979
H   30.851599   96.000549   64.886650
H   52.570187   72.705566   46.278625
H   62.033237   88.542496   27.124706
H    7.347408    6.748783   79.910240
H   27.647287   16.544706   59.370316
H   40.220222   71.600677   72.891815
H   83.421387   45.192684   74.705956
H   66.334976   81.007256   88.700974
H   55.585926   25.893959   25.444296
H   81.671158   99.205841   77.720078
H   56.156830   29.565559    3.990956
H   60.547077   57.148987   65.575043
H   12.098980   19.579000   29.730984
H   94.102577    5.314431   36.953049
H   35.904701   39.891617   42.491543
H   52.529434   44.856556   16.417553
H   23.474409   43.089157   58.633827
H   63.345520   86.713997   59.334999
H   24.218376   61.461651   75.759445
H    3.191141   25.988098   35.272503
H   57.094189    5.396063   82.847229
H   66.546204   13.613564   35.919762
H   22.982143   40.523830   59.518642
H   50.637630   48.620842   71.543961
H   62.963024   58.489452   89.807137
H   40.250946   89.988892   67.681030
H   21.619896   51.290600   23.944195
H   28.524574   73.883430   14.975872
H    7.676995    9.840775   73.460190
H   58.440765    5.780565   61.287804
H   54.382320   61.652870   95.850632
H   69.167274    9.235450   26.118643
H   32.761806   30.925137   94.112129
H   34.738930   89.458366   19.361000
H   66.093376   26.461922    1.875621
H   94.200218   59.231026   75.632401
H   13.307427   41.885742   87.312477
H   54.716583   93.031357   14.132923
H   58.184669   95.647041   49.005970
H   87.185860   64.165504   74.212158
H   61.815479   54.623234   74.180618
H   79.873650    8.824398   74.509773
H   42.152203    3.164367   16.077677
H   19.004955   33.487476   73.178513
H   23.381256   90.310310   46.835976
H   61.867649   24.284586   19.621374
H   76.966324   12.029948   20.373346
H   13.921491    3.856245   26.114668
H    9.408490   84.070343   28.043133
H    2.965391   13.489407   48.007591
H    1.009232   12.259377   88.426506
