100
TIME:    4.690, STEP:  4690
H    0.157377   91.924507   94.852188
H   70.949043   59.009491   73.826172
H   60.371513   11.321559   68.293068
H   82.263809   39.423027   83.088509
H   53.163147   48.681686   38.538681
H   55.296017   96.127068   43.212749
H    7.168112   78.029373   57.217113
H   51.261543   94.347015   77.574074
H   38.338783   35.369095    4.867500
H   46.674461   83.724815   91.344238
H   64.002655   54.954823   87.984879
H   76.837395   58.776085   59.089607
H   44.788467   77.976418   59.000000
H   22.859768   90.619972   14.150607
H   37.548988   51.097534   25.327805
H   12.949120    1.524396   43.730408
H   46.965279   92.178238    0.337548
H    1.360571   66.616692   36.946239
H   18.316727   75.105591   10.450594
H   66.157890    6.218630   35.649605
H   85.965477   89.312775   29.949928
H   12.015213   50.310028   19.881424
H   23.125771   56.478752   98.162888
H   83.289658   92.930847   58.753777
H   61.842682   14.218613   71.176552
H   25.166655   88.007782   49.391483
H   57.655739   47.520123   93.023476
H   36.813343   75.353058   21.797678
H   13.150773   74.605553   35.472633
H   80.828995   74.762077   56.229988
H    0.635043   42.616764   38.321068
H   61.886669   22.933029   65.087257
H    0.713900   25.339300   20.309195
H   76.264984   43.912170   74.169121
H   64.190598    4.392002   10.317398
H   80.331497   52.769733    4.682557
H   29.631361   32.778793   78.019028
H   70.144112   73.125160   53.400845
H   47.107235   79.230705   89.816711
H   21.448202   73.121788    7.033365
H   14.723545   17.109709   52.840069
H   10.110279   22.347197   23.140718
H   51.638554   91.624481   40.237411
H   79.870956   91.367828   39.298683
H   49.832447   46.846947   57.446674
H   17.580273   52.371387    2.213215
H   78.375290   79.895714   70.486443
H   56.489887   43.675446   58.768547
H    2.125953   44.023418   57.389816
H   24.241009    2.116148   55.638466
H   43.186802   16.854267    2.866902
H   33.056923   28.542055   66.173462
H    6.156067   49.202942   30.480749
H   68.079613   30.682671   38.772423
H   67.370178   69.609627   40.238087
H   99.434464    7.600298   32.968140
H   93.578018   54.218803    2.045392
H   76.828506   33.975365   92.750839
H   60.165924   36.933594   51.429848
H   49.526363   88.276825   30.215828
H   55.549622   60.463619   48.725899
H   32.457359   84.288223   83.146820
H   92.464363   87.245651   11.863091
H   65.094765   67.311584   99.803589
H   18.475824   86.261688   32.328785
H   13.231316    9.119093   23.492727
H   11.280828   10.508912   93.494797
H   56.395409   85.762955   90.411720
H   90.650589   12.792831   66.085388
H   25.406076   84.036133   91.857330
H   73.103661   76.292236    5.886963
H   87.255157   95.872803    0.001152
H    1.194062   86.319984   41.497688
H   26.963314   52.587849   24.489403
H   88.295052   35.325909   56.931973
H   36.532951    8.157305   80.351547
H   92.776413   20.047970   73.993721
H   52.325054   44.053158   73.451942
H   86.415535   39.742718   70.012383
H   69.518707   53.527241   16.873405
H    2.648022   77.801865   60.299114
H   93.221169   74.856827   94.602196
H   14.526896   85.552673   76.596191
H   72.813538   13.492317   35.057793
H   23.965387   55.523720   93.109596
H   43.352467   81.326729   67.471024
H   80.389214   62.351715   47.180878
H   31.447443   29.801413   46.969231
H   53.014755   33.039940   89.832649
H   51.680134   16.315453   91.873932
H   15.956840   26.678726   32.506023
H   25.311209   48.212082   22.892511
H   86.091682   68.243202   81.689438
H    0.533403   97.715439   43.040981
H   75.503304   29.627983   23.857281
H   81.296341   10.528917   25.204552
H   90.332481   36.829998   67.462723
H   24.080984   56.170227   80.985695
H   85.292419   57.067043   52.201065
H   30.524950   58.278141   45.938038
