100
TIME:    0.230, STEP:   230
H    1.768887    0.929226   98.935440
H   94.872322   17.214973   92.508881
H   83.716156   90.451225   20.639290
H   81.515213   23.174467   27.555830
H   93.110962   91.193039   59.468925
H   24.449783    0.963324    1.522689
H   40.916012   76.868889    8.438890
H    1.808751    8.500502   87.076149
H   47.974159   64.179825   85.609535
H   68.555061   19.689087   16.695642
H   78.860992   75.497116   17.595047
H   47.063076   35.219246   76.557549
H   28.632435   47.792130    2.269222
H   43.693714    4.368124   74.743752
H   83.300240   49.477608   39.716640
H   92.275787   91.619637   13.947651
H    5.574734   97.207375   94.295982
H    6.059670   83.515656   91.572556
H   48.845764   88.001678   75.479156
H   86.423500    0.709543   31.879084
H   50.628021   33.320274   50.999207
H   84.401649   44.403511   99.670906
H   82.673195   92.751640   25.770088
H   97.672012   39.440250   89.992844
H   21.357042   67.933418   38.256790
H   45.603046   20.757553   67.614189
H   42.245716   32.915882    4.530324
H   13.134392   67.174805   74.378128
H   16.172470   69.959404   46.299652
H    9.813128   85.147202    1.673384
H   25.149294   42.667641   91.211723
H   80.279755   46.155922   77.971840
H   86.558777   51.654121   18.517172
H   87.820015   52.644531   62.061699
H   75.054817   41.534012   38.733543
H   92.552422    2.553209   19.852934
H    1.859408   96.112160   26.588268
H   54.482513   54.744579   38.671535
H   40.380589   75.598167   20.081985
H   41.529934   90.651253   56.130821
H   19.524052   64.070320   47.757969
H   10.950089   22.179483   13.605861
H   13.222575   64.879181   18.086552
H   64.672379   16.626249    3.220120
H   36.704781   22.817204   75.789124
H   75.013969   67.527885   84.220238
H   38.508656   38.148273   29.588568
H   56.251698   97.750565   82.809052
H   71.751091   13.401104   35.299072
H   30.713621   34.250141   67.577286
H   43.526684   47.438927   55.842556
H   16.310549   42.396751   58.964088
H   13.650227   23.342346   89.512001
H   71.359955    3.449412   41.965168
H   22.448982   78.668243    2.357817
H   93.854019   12.290363   84.797058
H   10.833517   82.910286   77.862312
H    8.933128   55.166008    7.630533
H    8.417282   48.486969   93.826096
H   43.840790   45.466896   57.067253
H   74.209183   67.873276   96.463715
H   90.747986   25.804550   84.948059
H   89.833595   91.468910   17.779266
H   58.834030   43.045624   20.895864
H   41.451195   42.474613   16.980291
H   87.216194   30.839161   59.785259
H   69.115257   56.312580   78.166489
H   64.478096   30.691669   77.197929
H   68.366966   33.259987   45.807919
H   35.045876   59.713364    1.247110
H   14.728880   79.755211   59.388920
H   55.001774   43.892311   73.461922
H   91.994949    6.930882   55.851994
H   25.128479   34.824688   89.539024
H   73.259933   28.970961   18.833492
H   31.095640   22.313025   80.453140
H   87.837524    6.609246   95.102478
H   42.786148   35.681499   27.141926
H   72.578300   52.827267   20.253036
H   88.245834   96.427650    1.106554
H   15.382763   31.660990   93.735504
H   58.580997   45.729630   67.548279
H   32.348965   11.096320   51.806183
H   65.992889   31.842991   42.422218
H   41.130966   34.497375   25.456432
H   46.001316   17.500757   57.755611
H   82.515892   86.630043   34.510464
H   59.657715   86.879768   93.347816
H   60.456245   81.366356   26.319122
H   46.000404   99.823563   32.433880
H   33.435123   85.850708   38.318920
H   95.304298   12.804525   37.906837
H    0.041756   34.522873   36.708488
H   69.458900   27.183409   42.326176
H   52.615360   29.127590   21.372059
H   12.918686   86.649040   55.569160
H   44.345787   80.879692   23.961464
H    7.709719   18.195984   52.355331
H   97.755547   37.841732   25.785954
H   53.525280   72.795799   75.533676
