100
TIME:    0.973, STEP:   973
H   51.522133   32.792183   98.255203
H   74.204460   57.500957   39.376736
H   96.481934   43.905209   11.915253
H   81.639923   92.561668   86.829948
H   86.455978   50.747765   39.322578
H   12.928272    0.154676   75.105553
H    1.976339   27.039061   66.542641
H   43.410416   72.778152   18.855980
H   29.709801   92.743317   38.840202
H   48.249992   30.354633   45.792770
H    9.748932    5.393358   46.024933
H   18.702869   72.462212   23.669584
H   81.369400    2.839407   28.420889
H    6.904591    2.077285   31.285885
H   92.336052   83.112305    4.000284
H   62.402054   26.631084   52.272934
H   45.838783   46.343033   61.944511
H   21.936729   47.383743   65.814255
H   60.415459   19.171167   14.624781
H   66.311165   85.131989   82.568062
H    6.537362   59.353004   30.835690
H   55.645435   45.384186   36.406406
H   72.753075   86.708870    4.510620
H   28.639313   48.351353   34.811302
H   94.784538    9.008282   43.741524
H   42.197521   98.618011   97.974152
H   78.176407    2.029685   19.274290
H   50.441559    1.855591   98.934677
H   32.328094   37.369846   11.178440
H   38.301815   66.758133   60.739223
H   54.376804    9.297144   32.416588
H   27.192846   25.629776    9.188560
H   38.894573   97.293434   85.452477
H   19.213661   84.553139   30.759581
H   56.586388   85.368721   83.977463
H   57.153625   60.918957   17.296377
H   73.121758   68.902687   85.133980
H   23.775490   41.145512   91.103722
H    6.977056   59.737312   48.869980
H   71.546989   21.093985   14.587313
H   68.746552   89.567863   65.267990
H   44.173485   55.528091   48.513248
H   19.621855   69.334732   71.753120
H   17.226744   29.077417   75.868294
H   72.254189   93.501938   39.370682
H   65.524666   81.495415   87.133919
H   46.354053   78.229218   35.937447
H   56.291378    5.401380   28.781630
H   93.473320   51.864632    5.659778
H   46.296711   45.559078   15.612473
H   43.470387   75.706551   63.676029
H   52.418556   73.452499   10.185440
H   29.063044   27.650513   46.359993
H   54.158054   91.328636   74.752579
H   63.300529   43.803417    8.662670
H   94.783676   11.509369   59.503586
H   57.934402   61.471489   48.527885
H   53.606873   84.999641   88.492630
H   67.014305   79.879898   36.785534
H   94.811386    2.574912   35.935143
H   21.078299   33.322281   38.532707
H   64.377472   18.888809   51.330887
H   40.230972   40.802605   66.806496
H    9.852999   47.087364    0.721175
H   70.943794   83.132469   86.174950
H   41.572304   93.902443    3.717100
H    9.502768   82.001160   14.038631
H   13.154149   73.183884   12.717628
H    5.395216   79.872757   99.206581
H   50.096115   97.081688   99.684265
H   91.134453   29.198534   50.477818
H   93.739090   19.233727   27.859720
H   43.550751   70.176491   36.799694
H    8.775079   87.806351   45.380318
H    9.084811   30.028162   75.157768
H   48.662754   69.933983   30.459450
H   55.297726   42.213249    8.250975
H   77.693634   87.098869   68.176636
H    8.189844   50.652195   28.537754
H   51.807816   55.963768   37.096283
H   29.922764   39.347790   38.142071
H   14.327702   50.581985    5.415606
H   79.360847   23.497030   22.573185
H   17.102903   95.422462   74.557259
H    4.951959   88.022110   53.430992
H   28.897678   44.795109    9.351372
H   32.139198   32.607903   69.939468
H   71.618546   27.393280   85.627129
H   75.874947   39.996620   20.239506
H   80.310837   69.246918   58.997128
H   63.841709   25.971380   54.009716
H   50.279102   68.685005   52.061432
H   47.713142   56.783623   94.188499
H   41.272232   72.253426   92.423164
H   39.770222   62.575226   38.444237
H   74.287384   57.308159   17.192467
H   85.370407   23.518705   81.230820
H   10.437676   24.522186   40.468193
H   62.360558   41.044514   63.546589
H   99.668015   53.712101    3.971850
