100
TIME:    3.911, STEP:  3911
H   52.837067   63.362701   95.565384
H   92.477943   16.792212   24.704359
H   46.981262   55.276833   77.433861
H   82.133057   71.516838   25.787409
H   60.140579   86.241402   59.661163
H   67.377083   96.971016   66.066338
H   47.994129   25.426823   96.298225
H   12.489410   26.953281   49.099476
H   57.488091   10.266731   53.904346
H   67.963356   72.539528   60.842613
H   36.463333   23.609867   63.021221
H    6.567055   19.728617   14.539885
H   94.484039   25.086624   36.407509
H   61.431068   93.021065   54.869846
H   28.074139   20.681042   62.775997
H   44.272110   69.658684    8.393789
H    9.607797   40.652538   29.422110
H   84.714195    4.508613   63.956226
H    6.183595   42.425415   69.407578
H   87.149620   22.761801   82.611717
H   32.192429   66.865784   51.090530
H   37.331726   49.275894   86.220520
H   33.526543   62.814308   20.451920
H   55.667229   83.587982   16.607761
H   89.704865   75.998047   65.423439
H   28.723284   11.075582   22.592825
H   24.828577   79.902237   77.570900
H    2.543584   38.991959   96.047203
H   96.211304    3.928778   72.297310
H   50.957977   94.042137   94.302277
H   69.979424   72.761833   99.953072
H   12.700034   44.453712   37.203178
H   45.843349   82.335182   50.130722
H   43.350998   15.302818    6.987503
H   83.553864   63.278496   62.879410
H   12.608725   91.714935    7.186841
H   54.914192   61.306625   16.636648
H    2.344562   87.377190   98.430779
H   79.988617   96.204765   65.307289
H   94.821144   46.048828   45.743954
H   67.962646   90.380371   34.487164
H   80.122726   87.385880   86.543732
H   44.928570   86.953049   83.969139
H   29.614691   78.316345   63.130615
H   17.405733   77.582367   90.785217
H   27.630390   37.513142   99.047920
H   72.289352   37.531883   63.008987
H   56.448284   35.651993   10.568398
H   79.351730    8.541298   88.462646
H    7.902881   90.264153   10.124683
H   43.246235   92.061363   94.653778
H   95.200623    0.827268   17.311520
H   90.000298   44.686035   75.725441
H   86.123466   43.395386    4.398772
H   29.394150    1.338452   33.611309
H   98.459763    8.420111   59.487137
H   44.191593   76.696358   27.956198
H   34.834709    7.541736   12.816441
H   98.729912    4.017534   11.233131
H    0.934134   28.400503   52.372444
H    6.409174   96.693382    9.464207
H   60.105583   91.539047   18.393143
H   39.578152   40.403862   65.281456
H   11.600393   63.069374   20.955730
H   87.556831   48.479328   59.783573
H   61.086220   47.845375   77.432648
H   73.781540   83.575409   55.885601
H   10.206314   41.211990   53.171017
H   51.827103   68.766815   14.940695
H    9.623648   44.855003   93.497681
H   97.839668   29.295769   15.232632
H   51.486740   21.726852   42.967068
H   51.987213   24.852497   61.473114
H   44.115673    1.883086   70.775810
H   50.735508   34.214512   97.877846
H   18.114672   58.232307   32.769169
H   22.048056   87.567184   60.217152
H   15.726222   94.989555   30.429712
H   49.058342   42.030888   61.321449
H    7.722378   95.951973   83.985130
H   87.408524   69.742752   13.740409
H   34.771797   69.769363   59.742188
H   65.247963   72.539459    2.403419
H   19.221132   46.831978    6.208104
H   61.896149    4.248333   68.624847
H   61.283398   52.713348   13.375051
H   28.361578   18.991371   10.035023
H   18.910055   92.170280   55.069946
H   36.848984   76.414131   96.203865
H   20.553354   48.367661   64.023636
H   84.076813   84.614052   16.054972
H   67.670822   89.630424    8.048597
H   36.156090   44.867134   21.448160
H   25.240604   50.464516   90.517281
H   88.970818   99.405235    5.958203
H   16.954193   41.289619   65.440681
H   52.165405   92.125038   12.263714
H   21.222258   49.537506   93.454735
H   22.402214   53.709080   17.449257
H   82.137993   78.269691   20.980700
