100
TIME:    3.274, STEP:  3274
H   95.915436   21.778740   96.148575
H   10.197668   82.256271   84.522964
H   36.031853    9.448939   84.908424
H   82.026138   97.760429   60.705532
H   65.846130   35.183041   76.933334
H   77.252449   97.661125    2.980690
H   81.379478   82.413963   46.484001
H   62.556351   71.843826    7.585522
H   73.146767   71.511612   93.999947
H   85.371605   63.393150   35.896622
H   95.715530   97.979233   24.381559
H   30.881256   87.799515   59.882042
H   35.003441   63.625824   99.720482
H   92.971977   94.984474    6.392102
H   20.324989   77.580551   93.393715
H   69.883911   25.373199   61.270851
H   60.831551   98.521240   71.433487
H   71.106407   35.486153   86.039734
H   96.261497   15.700694   35.849018
H    4.313644   36.288631   39.241753
H   69.992920   30.280342   68.378510
H   76.261917   48.430267   40.466919
H   42.031410   67.994987   38.678177
H   14.851471   75.948181   63.919125
H   12.487483   26.514656   60.719032
H   31.646528   30.055700   82.298866
H   79.758591    6.379873   64.935097
H   56.290516    9.258942   74.994011
H   82.360519   46.134659    2.409237
H   26.532543    9.808467   43.661865
H   44.908230   15.641709   50.350487
H   72.479591   62.051498   96.173500
H    0.972943   28.940445   92.744728
H   16.435333   73.680214   33.821762
H   99.387497   11.430915   24.092354
H   57.215893   41.674984    9.385659
H   93.818398   84.634262   66.443718
H   28.671402   99.031288   53.477619
H    6.874762   10.082941   27.037046
H   54.818600    5.681909   95.625526
H   11.497313   68.520432   19.479719
H   37.372704   58.798920   56.616318
H   39.441715   83.133148   37.958126
H   70.292114   67.643951    0.848686
H   72.659615    2.717478   36.276302
H   35.848522   25.363331   96.462440
H   67.312790    2.888383   56.890343
H   56.414265   29.092173   71.154503
H   60.729355   61.295776   13.872275
H   94.544945   80.573463   54.675610
H   43.294834   53.560089   87.937363
H   64.242905   59.937317   59.131168
H   76.791023   40.992493   12.720047
H    0.877911   53.790764   76.289337
H   80.112320   45.509361   28.194201
H   97.662735    9.090780   81.172119
H    3.810114   95.076591   67.372078
H   82.267570   67.698700   29.225739
H   48.489517   77.103012   60.137516
H   42.968056   79.438812   70.490242
H   66.227119   26.316555   59.127934
H   82.713951   97.468155   47.217354
H   96.331871   83.871025    8.962479
H   67.860344   59.604248   38.252201
H   62.275173   99.354500    0.462044
H    0.218327   79.512642   39.768234
H   24.889622   61.550770   25.131456
H   54.208229    4.780239   22.718733
H   20.077217   14.537560   54.894100
H   96.717590   12.814857   94.839020
H   18.067883   72.636726   22.874863
H    4.011387   42.867523   96.328400
H   93.520126   56.359386   77.803215
H   58.141392   42.194435    8.624992
H   20.024698   33.305706   49.589634
H    3.054630   17.404951   75.630157
H   64.213966   42.778297   48.951847
H   85.798798   36.641605   95.249832
H   18.513716   43.901958   54.211380
H   38.962288   30.644287   38.863113
H   74.947678   63.152691   75.668228
H   86.976151   65.609268   13.007532
H   24.944761   61.905945   41.732151
H   75.395401   92.321991   64.386475
H   92.912186   44.094494   30.374748
H   75.941833   29.313091   69.139679
H   85.817772   65.306450   79.660217
H    8.658045   43.169922   61.694023
H   23.628452   11.881418    1.414165
H   76.873413   74.575272   41.254883
H   58.008179   50.217457    2.602669
H   20.535387   41.728752   95.909630
H   95.324463   25.753050   72.187889
H   63.673321   11.824528   47.567131
H   99.983406   56.465481   91.320610
H   64.340561   66.444588   98.342369
H    2.727979   55.568691   48.899010
H   18.884634   44.113831    3.649574
H   52.747581   50.963223   70.805748
H   42.571125   94.618477   82.345078
