100
TIME:    2.351, STEP:  2351
H   58.333649    6.422683   96.993607
H   35.872948   32.211838   26.300283
H   20.166380   43.044006   95.738914
H   81.871216   35.789818   11.296303
H   74.113358   61.200535    1.960217
H   91.561653   98.661079   11.572918
H   29.754936   20.087914   74.304115
H   35.102333   91.993683   92.332634
H   95.835869   60.254333   52.100735
H   10.594320   50.140236   99.750603
H   81.570740   60.840092   13.289606
H   66.111618   41.534027   25.581972
H   93.715584   19.468819   91.458824
H   38.673500   97.829414   36.152477
H    9.096630   60.026367   37.761841
H    6.995423    6.102025   37.888443
H   35.050552   37.472389   87.406235
H   51.384499   80.371422   18.040257
H   81.881874   76.981476   87.222519
H   29.178703   55.886326   76.399666
H   24.764954   22.167690   93.433701
H   87.773010   47.204971   19.068878
H   54.354790   75.501686   65.085419
H    0.608117   64.878265   32.468300
H   45.498161   99.718964   53.907890
H   35.879025   57.554691   68.811852
H   59.350349   44.749409   46.619396
H   34.171570   66.176445   44.483860
H   62.291016   62.393044   46.038750
H   91.141685   32.652969   70.286400
H    8.584428   32.872845   23.377556
H   14.200623   87.556831   81.620232
H   35.958721   96.472404    9.593602
H   77.436348   58.267624   72.707306
H   22.332554   81.202484   67.886665
H   76.964645   69.168694   12.558049
H    5.290875   18.437407   93.715027
H   66.818062   15.924091   88.345207
H   45.837379   30.191175   16.482874
H   41.755428   92.090294   23.005590
H   74.575508   36.851864   97.733078
H   20.326721   17.371239   13.253519
H   31.491377   77.598190   71.287712
H   29.231451   52.174484   10.602660
H   52.723141   39.131931   57.292580
H   47.756428    7.758503   92.716133
H   60.098049   52.693329   48.024551
H   56.364971   19.589087   14.044441
H   33.751717   37.739323   50.692902
H   75.193718   66.531853   19.232998
H   43.365253   42.669930   78.205414
H   19.386797   45.584133   19.722713
H   57.648720   35.640625   66.328697
H   22.250172   68.851189   35.558807
H   53.597984   64.607315   20.355116
H   96.507858   10.061161   12.593216
H   45.294270   21.710167   79.587059
H   50.996429   54.864777   52.999710
H   75.694695   38.104794   30.995352
H    3.877954    8.492887   96.742561
H    8.003223   69.237984   31.093334
H   15.471352    6.060539   88.978836
H   33.699345   46.833000   72.270432
H    4.477828   54.583351   63.314434
H   25.636616   73.074310   14.504880
H   56.919563   25.397743   85.194817
H   98.942909   29.643518   80.568253
H   17.966316   51.993652   78.593994
H   74.076744   80.858467   12.781074
H   78.014221   66.393135   96.782593
H   47.378075   35.438042   33.948917
H   80.116089   73.499924   28.750528
H   53.702255    2.017780    1.464521
H   78.452354    0.602889   63.481636
H   75.521751   31.988894   79.619492
H   81.237923   58.250893   37.737164
H   80.410889   22.777521   32.628651
H   42.434582   96.994148   44.277607
H   74.250565   46.613102   43.909035
H   84.227821   80.914169   18.380318
H   56.889393   53.603832   20.502476
H   17.721092   59.581375   90.187965
H   66.550522   46.498199   53.820988
H   11.897159   13.339693   48.691956
H   37.855789    1.826863   19.849228
H   97.180298   95.410149    5.043758
H   24.172705   32.416077   35.648148
H   93.801620   17.067581   71.297523
H    4.471758   63.272194    8.965626
H   58.479305   12.547691    8.261315
H   20.235260    0.379578   83.110550
H   52.240063   72.319633   78.318886
H   36.128162   98.078049    0.794622
H   74.461372   55.839314   85.334221
H   15.943527   39.141647   70.110313
H   88.104523    2.893469   46.016830
H   75.991135    2.599719    1.981139
H   15.497205   36.255035   18.418552
H   96.717400   46.984531   48.117645
H   85.246353   18.315834   71.250763
