200
TIME:    0.723, STEP:   723
H   24.312685   60.872021   23.598577
H   32.269226   39.929409    9.505362
H    8.014446   90.278984   69.138542
H   34.123627   82.619179   31.869366
H   10.082008   95.970810   46.714123
H   73.905762   39.705616   51.253284
H   10.357032   54.961426   59.000202
H   13.712386    9.742633    7.928095
H    7.043304   80.265205   35.936638
H   93.858704   68.133232   77.021019
H   29.028692    4.911924    8.224922
H   32.775070   54.914806   35.756222
H   23.028812    3.037926   41.495872
H   81.574768   55.244740   65.540245
H   96.302689   75.662750   41.790180
H   15.221881    6.065536   43.903675
H    6.928563   30.339777   91.981331
H   25.093180    6.386584   34.921425
H   81.095695   12.215781   49.594036
H   91.592896   73.071678   18.747250
H   63.881577    0.869168    3.712318
H   79.276207   67.276207   51.961769
H   80.541595   59.029655   37.546890
H   18.838705   92.462753   90.071548
H   24.240120   32.129513   28.175617
H   18.261271   83.771767   91.004196
H    8.249340   68.488304   68.501801
H    5.595252   90.054214    2.002187
H   31.411621   41.848701   35.510128
H   71.223183   33.703415   81.918121
H   12.730897   71.628304   16.785334
H   23.142860   74.826645    5.494895
H   15.452911   19.378464   79.078835
H   80.441032   64.104874   46.732628
H   24.809517   69.843063   30.544781
H   17.283939   38.909336   85.015030
H    0.127422   64.004143   89.580971
H    9.023975   57.249298   93.451088
H   35.194328   29.105234   55.167873
H   85.450706   37.702274   44.829193
H   80.648026   82.660744   17.556187
H   37.380234   32.978672   25.508978
H   68.005264   76.686401   68.263168
H   36.205246   86.692589   36.022469
H   45.280087   91.031456   61.793953
H   34.262814    1.268488   47.940842
H   89.076096    2.548760    6.768652
H   78.356995   65.543236   30.283951
H    5.759691   10.423125   61.514565
H   44.832916   19.981180   85.278786
H   66.718414   64.382706    8.727188
H    2.674769   44.011333   73.926048
H   65.203941   80.608963   14.240458
H   15.218034   92.376404   88.855743
H   56.754532   65.643166   75.152649
H   99.114067   60.450649   94.464233
H    4.052064   18.573219   44.473484
H   72.685593   69.807579   96.585426
H   17.989380   83.807877   18.808277
H   31.932220   93.277016   58.065483
H   48.855236    5.952946   28.124552
H   98.617393   17.569075   52.768951
H   84.753838   35.211861   68.589859
H   35.828972   65.841431   14.451557
H   79.112663   83.279556   37.680531
H   19.792690   35.325890   41.545151
H   68.133400   12.973753   95.814095
H   94.636635   92.548058   96.834122
H   33.702774   12.380300   55.866394
H   42.456635   50.048363   50.956799
H   58.253277   84.946022   86.200943
H   18.565889   11.126272   41.383842
H   92.823380   34.013302   83.322304
H   23.600986   98.348053   74.634132
H   85.026291    8.690225   44.902077
H   65.522156    2.024573   59.721272
H   93.386093   47.931141   65.313591
H    8.665689   14.765106   31.451378
H   15.202862   51.211945   24.239758
H   60.997459   87.973213   71.355682
H   63.867741   21.938858   93.962875
H   47.874710   59.903839   72.925621
H    9.115297   18.964405   76.147751
H    8.923466   77.653496    9.593466
H   21.708492    4.431374   44.094273
H   38.274563   68.874924   17.728306
H   57.502735    3.790574    2.878654
H   71.314842    0.567627   29.659895
H   80.469589   73.232811   78.910217
H   21.024929    7.697006   49.551739
H   20.996103   39.062370   78.606133
H   80.691025   92.773209    8.906773
H   70.204826   11.414751   81.973732
H   38.369293   77.080994   82.366974
H   37.363297   50.392700   88.056183
H   49.269905   38.508183    6.352117
H   85.857521   97.572884   19.130753
H   93.617172   35.943645   53.166653
H   26.073463   64.939629   54.592930
H   75.602539    5.775571   27.368326
H   31.415983   93.780823   91.683601
H    8.532333   83.963921   63.200348
H   33.191536   19.518162   37.252121
H   45.084419   68.831253    9.343247
H   24.698471   21.125324   40.746933
H    6.544943    3.125332   21.277344
H   88.538452   36.094116   54.011383
H   61.905022   52.819126    0.064802
H   85.071289   33.992825   22.488102
H   19.882414   21.326056    7.901190
H   53.549320   91.869568    1.135677
H    5.387740   75.491150   96.012863
H   48.705143   85.879539   83.429443
H   61.588036    8.984465   62.498913
H   47.732079    2.081226    9.837164
H   94.327133   91.668297    0.723798
H   12.716412   15.243834   89.810776
H   38.320591   50.770241   24.323814
H   37.205074   75.847481   59.668579
H   83.529037   56.314816   67.360901
H   45.595650   24.969067   71.692764
H   97.448906   16.038113   62.395672
H   43.880989    1.451584   38.357750
H   96.961266   49.938183   96.713829
H   62.463814   96.993469   76.838669
H   65.417702   75.567062   16.205578
H   83.380913   51.445145   52.401306
H   64.863785   91.358147   39.081867
H   98.411621   35.000198   73.883179
H   91.155983   21.860041   74.730209
H   68.106277   67.939911   21.869495
H   63.160782   90.841873   20.717312
H   90.860573    6.093724    0.968343
H   77.237083   25.386574   55.651585
H   28.286633   92.636703   34.222145
H   49.493752    1.006965   76.565872
H   69.692360   87.795311   79.383270
H   95.338173   49.140099   75.566742
H   58.938034   51.088234   71.435852
H   43.709579   85.925484   82.036728
H   74.529610   48.864841   30.512192
H   35.003021   55.686329   57.506401
H   39.478764   65.650703   83.092873
H   35.580986    9.043893   86.128242
H   63.005207   53.748390   64.862442
H   63.637333   70.296906    6.713583
H   56.154747   94.662605   43.823524
H   29.463837   55.439590   66.053856
H   78.097504   44.626202   93.142906
H   24.858625   93.948029   71.922020
H   59.196056   69.512756   47.697891
H   54.119343   93.744797   33.016201
H   98.613701   13.778416   86.509575
H   22.677706   12.229379   64.016815
H   32.765312   66.635040   69.491028
H   77.840424   44.726528   68.921318
H   64.367081   75.368919   86.474899
H   52.913059   28.910347   21.039839
H   90.275681   99.914398   84.692337
H   58.264572   37.236450   96.776611
H   58.700382   64.786774   70.573669
H   20.926182   20.553267   31.359661
H   86.010109   13.511217   37.031219
H   29.004002   34.368744   50.534527
H   54.329514   38.477390   14.570361
H   20.235342   49.071014   59.661522
H   66.582794   89.754768   57.342003
H   24.054146   52.908047   67.985397
H    0.636069   26.599480   35.716427
H   48.514767    6.814791   84.964294
H   70.137756   11.377809   35.935539
H   29.477131   47.506847   58.941326
H   47.005199   56.699684   76.833755
H   65.278351   62.985348   85.445351
H   48.988861   91.403137   76.520782
H   15.819468   50.270077   23.751278
H   30.455894   68.009865    7.112178
H    6.010756    9.661484   71.056259
H   63.249344   10.151136   63.485909
H   63.324627   59.636208   93.198563
H   72.599617    2.497998   30.489393
H   28.969879   30.695644   87.248878
H   43.395805   89.657738   15.636055
H   61.999462   26.114098   94.959343
H   91.769035   67.385170   76.406937
H    9.371816   40.299377   86.371559
H   48.170319   96.251419    9.967281
H   67.216621   87.683662   42.427433
H   92.630562   63.327286   72.063538
H   58.396763   55.645908   71.805374
H   70.893333   15.044353   75.852303
H   43.693386   98.055161   18.472284
H   14.828964   29.014769   68.871231
H   26.665504   82.807350   43.047203
H   68.319489   32.681519   20.236341
H   76.507339   11.568633   22.949038
H   12.671834   98.729591   19.769209
H   14.872376   87.806763   33.345119
H    5.472395   12.963367   56.415611
H    2.970091   18.628756   91.038414
