100
TIME:    0.869, STEP:   869
H   58.555336   42.329536   98.350418
H   77.097404   51.861858   32.816433
H   94.695068   36.422909   13.136383
H   81.622467   96.846336   92.530144
H   87.387497   42.411705   42.142525
H   14.540974    0.267862   64.806480
H    7.426892   20.016172   58.409702
H   51.584610   63.780369   28.405235
H   32.266319    2.742511   45.387016
H   51.092155   28.861744   41.719955
H   19.422760    1.208793   56.042328
H   22.672535   67.249199   31.072142
H   87.985245    9.131710   38.757393
H   12.053928    2.397941   23.371151
H   91.071281   92.402100    8.999659
H   66.583572   35.728069   60.905746
H   54.200233   39.465347   52.475395
H   19.714256   52.441238   69.419724
H   58.796013   14.807948    9.145960
H   69.126350   87.312408   75.472969
H   12.708847   69.706390   33.658180
H   45.673267   45.246918   45.262180
H   74.141624   87.554695    7.486282
H   38.302032   47.104038   42.535606
H   98.504265   17.256268   42.974251
H   42.674389    1.716952    7.722153
H   87.144058    6.352958   17.210508
H   59.216400   97.001175   95.497421
H   30.066742   27.934225   16.094303
H   34.313900   69.332108   52.471401
H   50.285740   99.970543   40.646324
H   20.626196   28.502884   18.816368
H   31.568607    4.902488   76.083336
H   14.819444   94.084145   35.140938
H   59.171471   93.230293   77.644089
H   48.111389   52.749523   17.654226
H   63.146481   72.711281   76.939156
H   28.073647   43.049015   83.764244
H   11.652678   61.957405   58.838181
H   81.343010   30.830099    6.404787
H   75.854340   85.998894   62.817410
H   53.520409   50.860184   43.627140
H   18.726042   68.711075   64.240669
H   23.867582   27.334589   65.699348
H   81.275795   97.605698   30.470541
H   66.852913   79.540337   86.726082
H   45.255909   72.619476   35.048775
H   56.285824    4.330610   22.346693
H   90.432793   60.477608    9.808566
H   44.115498   43.976131   22.886093
H   43.478321   85.746956   62.579472
H   47.364235   83.102524   17.013138
H   26.905634   27.047485   52.400581
H   56.566196   93.025047   70.163223
H   71.579529   34.685802    7.780148
H   94.653549   11.618668   63.043991
H   51.341568   64.472343   38.636650
H   61.351013   94.821053   91.171341
H   58.812050   75.485733   44.770092
H    1.674626   94.581375   38.893150
H   14.517643   38.158401   46.641045
H   68.068634   19.856827   56.036880
H   33.176346   47.894524   73.941261
H    2.711424   46.521629    3.545088
H   66.816231   91.438377   76.490013
H   47.961220   99.072609   97.567924
H   17.847158   78.405212    9.017239
H   20.338188   67.236130    7.745826
H    0.211688   87.345535    5.729351
H   47.989487   91.851219   99.903259
H   94.436821   36.275219   51.725132
H    2.314611   22.685265   20.245310
H   50.331635   75.321266   39.466503
H   11.064004   94.387283   51.561348
H    4.070680   29.880182   67.273979
H   46.203831   63.268860   37.457035
H   45.854794   51.226921    6.410749
H   72.807526   93.898796   62.433376
H    3.204649   50.956882   27.378117
H   56.908157   61.628258   46.056000
H   27.887547   38.271862   31.926132
H    6.524448   49.902786   14.112490
H   72.779915   21.761343   12.667734
H    9.948469   86.523048   84.056526
H   10.016060   94.526871   63.512657
H   31.291538   40.974613    2.129140
H   25.193274   40.169548   64.980362
H   69.944351   35.719597   86.707817
H   73.716743   45.787270   21.090488
H   89.505417   73.526825   55.278988
H   59.585606   20.355688   51.813427
H   42.584156   60.863106   50.080170
H   41.040169   53.667717   86.142845
H   31.219927   65.945442   85.410591
H   41.568195   71.890533   36.054344
H   65.697418   61.415092   22.564171
H   93.625534   17.550322   87.211899
H   10.055825   23.636688   42.132072
H   67.314903   40.596210   72.258705
H   93.209274   56.383671   13.988689
