100
TIME:    3.093, STEP:  3093
H    8.155575   38.377403   96.314285
H   15.232849   72.443451   73.105515
H   32.920639   96.427338   87.032280
H   81.995758    5.217878   70.626526
H   67.467331   20.675091   81.841125
H   80.058479   97.857216   85.056175
H   90.866402   70.192818   32.329567
H   76.782593   56.184879   24.204723
H   77.596092   88.913971    5.393026
H   90.318062   60.794258   28.808359
H   12.551697   90.696259   41.815983
H   37.790001   78.726868   72.766029
H   46.516174   74.576523   17.710182
H    1.934083   95.542366   92.618187
H   18.123112   93.748367    2.093733
H   77.161362   41.204071   76.295265
H   75.386452   86.548660   54.956341
H   67.239830   44.288139   92.314636
H   93.441658    8.107013   26.313761
H    9.189674   40.131733   26.918421
H   80.733719   48.299973   73.291824
H   58.909271   48.189987   55.880753
H   44.448021   69.467049   43.856628
H   31.668320   73.777374   77.361015
H   18.960735   40.869324   59.382301
H   32.476757   35.448444   99.264854
H   95.365753   13.904126   61.343685
H   71.562798    0.810502   69.011864
H   78.424896   29.712851   10.964827
H   19.592728   14.288518   29.272804
H   37.784061   99.411362   64.670631
H   61.051094   67.052650   12.929527
H   88.224213   42.183311   76.438820
H    8.787431   90.267830   41.447205
H    3.886925   25.113190   13.071228
H   41.478909   27.455866   10.007764
H   76.457466   91.262680   52.181576
H   36.151848    2.343622   40.705486
H   14.515075   14.026159   44.577301
H   71.866699   22.626703   81.385475
H   23.866907   62.309429   15.215501
H   53.639946   50.674965   48.112610
H   37.882656   82.047745   24.884575
H   81.850418   64.611450   83.150841
H   88.360680    9.858547   20.787397
H   38.183659   21.911030   95.727791
H   65.898727   93.045013   55.151764
H   56.404598   27.228621   59.955238
H   55.439049   76.286797   21.092520
H   90.750175   77.819908   67.334869
H   43.308643   71.034256   86.028931
H   55.446445   76.732407   71.013176
H   73.037682   39.942993   23.232304
H    5.069004   56.744553   68.302094
H   94.523605   29.646729   26.655165
H   97.436264    9.281347   87.333786
H   92.335014    0.299247   50.157524
H   95.745354   84.791733   33.888138
H   34.214943   69.455475   74.032722
H   54.911636   65.527420   75.638313
H   54.809669   34.733265   73.240463
H   89.137993   99.152878   55.407593
H   84.044441   96.221977   21.374191
H   55.431107   58.619652   43.166897
H   55.090244   13.810872   83.606514
H   11.337250   88.510719   29.066292
H   39.411720   55.293819   16.392302
H   66.711082   94.428589   14.065886
H   11.055853   27.543068   66.246376
H   93.049866    3.710875   95.220154
H   23.815964   84.951775   25.046360
H   18.935453   48.874527   83.077087
H    5.321735   65.312096   82.443108
H   62.125347   53.649170   19.382362
H   11.298158   33.047474   35.868809
H   98.775734    5.804497   87.809875
H   47.779652   58.466934   45.750874
H   77.295090   48.477474   85.254730
H    9.834386   44.433613   52.191093
H   47.838844   40.502583   54.456467
H   71.406998   61.280163   64.850098
H   73.396179   64.427200   28.143110
H   13.492865   58.884491   24.492741
H   62.942379   76.833588   80.918854
H    1.725305   55.416660   47.920723
H   80.106689   22.664650   56.570538
H   73.729195   78.466621   71.029465
H    5.744993   57.661301   63.576218
H   19.871658   21.958826    2.895012
H   92.875519   82.021194   34.785271
H   50.600922   40.444683   98.780228
H    7.142302   28.117022   92.460091
H   83.721970   20.321890   58.190880
H   46.178440    0.845432   35.363937
H    3.113116   72.678131   87.161278
H   49.390717   73.592232    7.691481
H   17.094696   45.181408   59.308388
H   18.220411   42.572723    6.545710
H   61.370049   50.183002   85.965492
H   31.329050   99.263893   99.780579
