100
TIME:    7.523, STEP:  7523
H    8.572721   32.125496   92.258499
H   92.710312   12.523396   52.455280
H    9.084436   15.138740   35.031796
H   82.739319   22.703209   27.801041
H   27.786428   75.758965   61.725693
H   11.355174   93.057869   23.773685
H   58.688274   69.327713   78.761551
H   28.593330   39.436726   17.456451
H   68.698174   62.987610   26.540428
H   69.279854   24.404131    2.273812
H    0.483902   68.946838   15.096415
H   68.711029    0.779927   57.433556
H   64.032982    6.629034   77.491219
H   82.587471   81.887886   29.743732
H   71.980354   98.041397   89.121368
H   99.038956   53.739929    8.565989
H   19.152321   79.558395   58.236721
H   61.943752   28.769669   38.740952
H   62.434406   93.951233   59.701107
H   89.835098   46.052631   28.533396
H   17.851227    7.278282   53.054356
H   83.617676   54.070877   78.625351
H   85.299309   33.438148   17.108122
H   20.062410   26.825167   48.350807
H   60.518501   89.548218   92.098976
H   12.135754    4.324848   82.935020
H   13.361845   29.754190   49.237843
H   97.773338    7.587898   15.442262
H   74.751137   31.637060    1.556591
H   89.458893    4.645144   81.445732
H   12.132119   96.658005   14.183189
H   40.764004   44.657703    2.822281
H    0.266260   18.063845   75.528206
H   95.965904   84.284706   54.818954
H   93.728844   90.073387   82.757355
H   26.598995   74.662338   95.774757
H    1.353006   29.027643    1.248419
H   53.051666   21.276798   53.317642
H   27.523647   17.503447   15.277790
H   54.610313    7.904859   29.928133
H   21.107664   14.316388   19.583097
H   66.216469   71.104599   64.020805
H   76.030182    8.616125   44.867260
H   98.975677   38.915733   16.294762
H    4.091667   35.072872   99.872993
H   81.016350    6.405532   13.724276
H    0.508409   33.965096   97.676949
H   56.646786   72.854446   34.058132
H   84.935127    9.395878   44.379044
H   83.686768   45.238308   57.525085
H   42.985027   43.346710   32.729385
H   70.746307   65.661133   80.198608
H   64.923576   65.629639   65.946053
H    2.479553   84.459290   63.785477
H   41.802811   17.884403   64.337479
H    2.965647    4.620257   36.526123
H   73.176529   72.473381   71.487328
H   65.877609   66.432854   19.779913
H   83.596245   56.642017   33.945305
H   62.576988    6.030097   49.638573
H   34.257702   28.717693   27.843857
H   31.911964   57.919052   54.963577
H   84.797295   93.926666   17.595764
H   59.631832   82.744034   22.889156
H   30.922855   59.995800   96.152809
H   39.197540   68.282738   91.002319
H   83.983856    8.452976   30.273344
H   60.700691   47.786125   25.845505
H   31.847404    9.231522   88.403046
H   82.812981   26.505526   85.887436
H   83.142799   83.537033   71.908119
H   53.766033    1.806145    7.479664
H   16.477423   46.193584   68.862122
H   64.594154   73.287903   56.162262
H   24.861330   39.392406   71.700638
H    3.503143   89.726585   89.727028
H   50.031940   74.666328   24.162580
H   85.424545   58.810879   29.906687
H   22.268927   31.421299    1.613017
H   30.589542   99.205467   72.808052
H   58.090111    7.111245   29.622330
H    5.817022   93.258423   57.629238
H   93.721138   32.929234   46.396111
H   67.718620   55.918697   76.306938
H   86.022278   78.311668   18.482290
H   78.150375   85.386856   64.203156
H   69.598946   56.369087   82.268974
H   77.019554    3.075586   17.576118
H   11.806840   75.303780   66.662361
H    1.203963   99.757462   93.146591
H   31.894886   79.651360   92.333786
H   34.924717   61.280792   76.868111
H   67.692307   53.247776    0.769721
H   74.334511   69.584557   34.063061
H   26.524601   75.865555   88.957520
H   15.290587   98.657593   78.876091
H   65.461967   99.409470    4.533851
H   23.756189   58.695988   27.857763
H   50.334618   69.288338   14.906727
H    6.494621   85.581253   73.026413
