100
TIME:    2.842, STEP:  2842
H   25.129204   61.395439   96.544083
H   22.214912   58.834892   57.272480
H   28.606192   78.369095   89.977516
H   81.953629   15.559717   84.383728
H   69.715515    0.556349   88.646957
H   83.949715   98.129143   60.199467
H    4.021929   53.244049   12.701041
H   96.510696   34.470943   47.251484
H   83.766151   13.046770   21.192875
H   97.177513   57.190269   18.978777
H   35.899109   80.596664   65.992737
H   47.370636   66.145462   90.632774
H   62.481346   89.762299   42.657150
H   14.361812   96.316017   73.518196
H   15.069679   16.168493   14.159432
H   87.253296   63.157379   97.130226
H   95.570320   69.945801   32.106823
H   61.877136   56.494209    1.016411
H   89.531273   97.577164   13.090837
H   15.951462   45.461117    9.829157
H   95.628418   73.287811   80.105316
H   34.845657   47.856781   77.255737
H   47.799232   71.508415   51.037796
H   54.988922   70.767029   96.001411
H   27.937195   60.775520   57.530304
H   33.627659   42.926434   22.791075
H   17.009605   24.337980   56.362827
H   92.742455   89.094673   60.715420
H   72.967209    6.940700   22.829073
H    9.968705   20.500839    9.319691
H   27.905088   76.902710   84.528954
H   45.202736   73.988701   36.165871
H   70.545135   60.547951   53.826759
H   98.181877   13.270336   52.021713
H   10.126557   44.086792   97.787498
H   19.655277    7.738291   10.870461
H   52.383286    0.454621   32.403683
H   46.525284    6.937415   22.993855
H   25.110580   19.494379   68.901352
H   95.509018   46.125015   61.637989
H   41.020824   53.697773    9.302527
H   76.198387   39.409149   36.320175
H   35.720646   80.542572    6.754701
H   97.878784   60.404518   58.608902
H   10.133532   19.761196   99.308083
H   41.421886   17.123585   94.709023
H   63.937733   79.395050   52.740807
H   56.391193   24.644358   44.424767
H   48.102768   97.075798   31.104982
H   85.487816   74.001442   84.891388
H   43.327793   95.266388   83.382431
H   43.248035    0.022376   87.489647
H   67.832771   38.487610   37.810455
H   10.880962   60.840691   57.225861
H   14.508060    7.649375   24.520922
H   97.122208    9.545145   95.878418
H   76.421547    7.542111   26.285408
H   14.435191    8.495585   40.353104
H   14.419815   58.850323   93.301231
H   71.475143   46.234165   82.777351
H   38.976631   46.405056   92.811539
H   98.046471    1.489443   66.764862
H   67.005028   13.349888   38.586098
H   38.194389   57.254272   49.982304
H   45.126614   33.857960   60.231987
H   26.756508    0.988705   14.226112
H   59.549629   46.617054    4.273438
H   84.049294   80.073914    2.066634
H   98.545830   45.578331   81.987495
H   87.963684   91.086983   95.748688
H   31.787060    2.029620   28.057663
H   39.631226   57.204681   64.700958
H   21.688055   77.728813   88.877434
H   67.648796   69.533249   34.300041
H   99.196678   32.689373   16.840824
H   92.843132   89.718254    4.699625
H   24.989794   80.221573   41.311954
H   65.502655   64.890648   71.394119
H   97.798126   45.170879   49.389481
H   60.148323   54.173611   76.080399
H   66.496994   58.683453   49.848164
H   54.563324   62.787979   49.131447
H   97.612625   54.694519    0.586447
H   45.675022   55.355194    3.844702
H   13.947274   71.116699   72.252434
H   85.882263   13.444988   39.140408
H   56.965477   96.716362   59.060852
H    1.705347   77.757080   66.187935
H   14.662083   35.933647    4.948586
H   15.067244   92.346756   25.812939
H   40.328979   26.892021   93.479568
H   88.570297    9.241255   87.676476
H   67.632263   12.790112   38.780579
H   21.917583   85.621300   18.440510
H    7.453175   95.159973   81.393364
H   28.659164   83.504158   20.656189
H   37.017410   30.776943   73.743492
H   17.299307   40.435608   10.561897
H   73.327171   49.101040    6.989940
H   15.739206    5.704389   23.960352
