100
TIME:    4.761, STEP:  4761
H   95.355873   85.413429   94.787186
H   68.988136   62.857094   78.302673
H   61.591934   16.429398   67.459953
H   82.275726   36.497917   79.197029
H   52.527206   54.372650   36.613525
H   54.194767   96.050148   50.244389
H    3.447061   82.823303   62.769405
H   45.681084    0.489715   71.055412
H   36.593468   28.542755    0.398181
H   44.734138   84.744270   94.124176
H   57.398407   57.811680   81.145538
H   74.127876   62.334969   54.035667
H   40.257797   73.683006   51.945068
H   19.344490   90.401131   19.553934
H   38.412437   44.755463   21.914906
H   10.094158   95.314468   37.836853
H   41.255898   96.874664    6.800962
H    2.878818   63.161945   34.484814
H   19.422581   78.083786   14.190943
H   64.244652    4.710844   40.483620
H   81.752235   82.244843   28.022877
H   18.822052   50.404282   13.835114
H   22.177818   55.901314   96.131561
H   76.692993   93.782379   53.480453
H   59.303253    8.587776   71.700905
H   24.842997   85.909286   42.715191
H   51.533051   44.568470   94.431862
H   30.822773   78.667099   24.144808
H   14.694716   81.047295   32.116341
H   83.551514   73.004845   61.874367
H    3.429444   48.983212   32.703773
H   66.369667   20.971581   58.514427
H    5.715160   20.144793   26.705435
H   79.264847   37.405426   71.177925
H   62.425781   99.024857   14.640602
H   86.503479   58.330692    4.459179
H   36.441002   30.178505   83.613571
H   67.209251   71.826195   58.410908
H   44.110081   77.683647   82.936203
H   14.760805   66.475288   12.619513
H    9.871384   19.545675   54.512798
H    3.729025   25.533670   26.475885
H   52.250118   92.050247   45.365562
H   75.337036   92.557373   46.240944
H   43.674007   44.045883   63.522236
H   16.664280   53.725605    2.501833
H   78.929977   83.756859   71.167885
H   56.493679   44.406723   63.161629
H    4.201223   38.143406   54.557335
H   25.730106    3.196814   50.672821
H   43.181385    9.999489    3.615378
H   36.507469   21.953787   61.512497
H    7.628847   49.614624   26.357157
H   66.435051   29.524002   41.905540
H   61.717133   75.832527   40.842068
H   99.523300    7.525613   30.551132
H   98.079437   52.170143    8.798187
H   71.541641   27.270170   90.922104
H   65.765511   39.933456   45.978851
H   44.841312   93.733780   28.196419
H   60.028290   57.162037   43.190399
H   29.937654   83.627365   79.934616
H   97.284294   82.400803    6.994408
H   69.969948   67.698349   97.876266
H   21.293951   80.591309   38.940617
H    8.869923    5.589596   27.690802
H    5.584206   12.963431   96.922592
H   51.490974   89.823441   93.805931
H   94.188889    7.691223   61.632431
H   26.844526   87.606934   91.707825
H   70.849159   71.461472    5.035228
H   81.400604   93.516464    5.199477
H   96.564743   82.807686   39.677078
H   25.400349   48.094555   20.270908
H   91.718513   35.427204   62.314175
H   38.211639   12.707747   75.573868
H   99.222488   13.894135   75.249352
H   55.660763   39.410358   77.372673
H   89.820580   39.534168   70.804329
H   66.036743   49.660137   10.756792
H    4.037381   78.536392   64.542686
H   98.548119   75.320511   88.665306
H   19.018023   86.740051   83.357529
H   77.698471   19.568094   28.573257
H   20.508070   51.082428   86.226921
H   41.718197   83.934410   72.401459
H   85.131142   57.189438   50.566422
H   32.590271   24.117220   46.230911
H   54.488144   29.086908   89.251961
H   45.402523   13.394135   94.412277
H   18.862450   30.512516   34.005413
H   30.564684   53.551819   24.245207
H   90.642937   70.374199   87.179977
H    7.395955    2.021994   47.827869
H   74.275841   23.268036   25.488571
H   87.160645    7.725287   21.537331
H   84.696770   40.904568   63.379486
H   24.341536   56.774750   79.849236
H   81.910126   57.373096   46.253883
H   34.934826   56.456448   39.098156
