100
TIME:    2.165, STEP:  2165
H   70.912262   23.479691   97.163895
H   41.046867   22.127222   14.567478
H   16.969221   29.662323   97.921440
H   81.839996   43.452782   21.491756
H   75.779343   46.291813    7.003227
H   94.445198   98.862587   93.152763
H   39.502674    7.527980   59.758675
H   49.721565   75.901459    9.410278
H    0.408108   78.137421   63.809460
H   15.676710   47.469551   92.467949
H   98.872009   53.355930   31.206041
H   73.209793   32.210754   38.821526
H    5.547342   30.722023    9.945917
H   47.883247   98.402718   21.997280
H    6.834018   76.640808   46.703384
H   14.474594   22.370430   53.327896
H   50.004684   25.171913   70.471085
H   47.409691   89.416557   24.489208
H   78.984138   69.179443   77.422440
H   34.189430   59.835590   63.735909
H   35.802460   40.685101   98.482742
H   69.941010   46.958054   34.908508
H   56.838158   77.014412   70.406921
H   17.889595   62.647495   46.282921
H   52.150749   14.470200   52.535652
H   36.731884   63.096149   86.246513
H   75.389061   52.481907   42.928402
H   49.865036   57.494595   38.335041
H   58.246674   45.517494   54.831291
H   84.009453   37.256424   55.499722
H    1.266849   16.192453   38.095119
H    2.456704   92.696693   98.839195
H   22.856968   10.080833   92.837250
H   69.577553   75.313461   80.543396
H   26.956585   95.262604   56.560600
H   60.792950   54.557056   13.197339
H   87.450623   25.249640   79.058899
H   74.506569   19.328434   75.218834
H   53.689079   34.243713   34.507256
H   59.273815    9.502833    8.371458
H   87.287514   30.470148   93.350998
H   37.043335    9.023162    4.515327
H   29.889250   76.482803   57.852631
H   41.108879   49.056793   92.416306
H   68.856941   46.469929   41.376122
H   50.156071    4.210835   91.961189
H   58.643505   42.578217   46.237946
H   56.355038   17.674055    2.535877
H   28.315268   53.143299   58.113205
H   71.294121   63.702084   32.241589
H   43.379444   60.626808   76.244263
H   10.348047   62.844250   31.933788
H   53.790276   34.562134   77.130638
H   26.557041   71.885155   27.351324
H   68.405533   48.300861   18.777113
H   96.275131   10.256638   18.925095
H   33.503239   27.077080   61.896965
H   64.846527   72.429993   57.790482
H   61.024666   30.245840   45.275375
H   16.151760   94.196365    2.032727
H   96.270126   77.888618   45.594784
H   22.072144    7.792156   97.393906
H   21.083031   59.516624   85.030685
H   91.705933   53.571556   68.363670
H   18.253918   87.929108   97.183151
H   68.345894   34.644386   74.197044
H   13.866461   23.213015   71.588394
H   30.814552   41.356323   69.702118
H   64.807396   94.223244   24.447128
H   74.245178   57.037590   97.174255
H   53.284233   48.093285   36.181110
H   95.453369   79.672867   15.132448
H   65.829605   11.217594    6.233959
H   82.544945   12.373588   74.536171
H   66.553246   31.724237   65.519638
H   76.841652   46.329308   50.251919
H   63.523949   38.899139   29.338678
H   33.695965    9.156179   34.004978
H   65.330307   47.159443   41.832939
H   93.349586   91.043472   34.404427
H   53.249485   51.679577    9.386000
H    3.764875   58.366653    5.741186
H   54.782505   43.393280   36.105350
H   99.101753   97.423439   65.681030
H   46.912277   13.461458   37.879898
H    1.460633   88.578758   92.127312
H   11.750189   45.939789   26.778975
H   90.807388   31.959274   73.233131
H    0.611360   73.628548   10.487221
H   74.923935   20.200722    1.612491
H   12.623383   90.335449   79.182571
H   38.476528   58.332729   74.774055
H   24.194271   92.503952   86.405258
H   56.484035   44.556309   72.792503
H   19.159843   55.802917   65.836082
H   72.741699   10.238207   55.623917
H   90.755112   91.925560   12.678341
H   14.814279   34.671356   21.395046
H    5.577833   46.182758   63.697586
H   73.695145   23.093124   89.165070
