100
TIME:    1.985, STEP:  1985
H   83.085114   39.986649   97.328690
H   46.053886   12.367929    3.213445
H   13.875196   16.712875    0.033582
H   81.809784   50.868553   31.358166
H   77.391586   31.864017   11.883560
H   97.235725   99.057594   75.327446
H   48.935810   95.373619   45.682442
H   63.869209   60.328663   25.937698
H    4.832909   95.443634   75.139137
H   20.595152   44.885017   85.420219
H   15.615158   46.113194   48.543873
H   80.078995   23.188234   51.634331
H   16.996880   41.612221   27.836349
H   56.795906   98.957527    8.298702
H    4.644477   92.719299   55.356491
H   21.712524   38.113838   68.269302
H   64.476425   13.268227   54.083061
H   43.563103   98.169914   30.730129
H   76.179878   61.628654   67.938492
H   39.038521   63.657459   51.480659
H   46.483917   58.605175    3.368420
H   52.682621   46.719910   50.236412
H   59.241417   78.478340   75.556763
H   34.613533   60.488682   59.651909
H   58.588737   28.745560   51.207680
H   37.557232   68.459991    3.118593
H   90.909996   59.964970   39.356472
H   65.052353   49.092800   32.385334
H   54.332794   29.186438   63.340202
H   77.107292   41.711380   41.190029
H   94.186012    0.050125   52.337521
H   91.091400   97.670753   15.502647
H   10.177900   23.250008   76.621429
H   61.972267   91.809433   88.126709
H   31.431454    8.869395   45.600365
H   45.142925   40.416279   13.816007
H   70.185608   31.842123   64.875549
H   81.947060   22.622959   62.516056
H   61.484024   38.134102   51.874840
H   76.228081   26.353933   94.209671
H   99.589455   24.293772   89.110275
H   53.220703    0.944285   96.058838
H   28.338804   75.403397   44.851685
H   52.603325   46.039673   74.816208
H   84.471260   53.571217   25.972185
H   52.478306    0.777621   91.230598
H   57.039845   32.820526   44.584908
H   56.345425   15.820799   91.398506
H   23.054190   68.050743   65.293900
H   67.520317   60.962368   44.830547
H   43.393177   78.004433   74.346375
H    1.600870   79.546310   43.750957
H   50.056297   33.518433   87.584129
H   30.724979   74.821251   19.408895
H   82.734451   32.520374   17.250013
H   96.049911   10.445808   25.052719
H   22.092562   32.270866   44.777519
H   78.249847   89.428589   62.426712
H   46.828957   22.639868   59.094803
H   28.029354   80.361832    7.152045
H   84.915756   86.260201   59.628445
H   28.460007    9.467915    5.538338
H    8.873587   71.791100   97.379318
H   79.346313   52.592400   73.249840
H   11.109370    2.304860   80.420761
H   79.403633   43.592751   63.554043
H   28.308676   16.989946   62.898205
H   43.248329   31.062073   61.097080
H   55.835808    7.156876   35.736954
H   70.597717   47.983482   97.553284
H   58.999870   60.341072   38.340488
H   10.295190   85.646683    1.953596
H   77.565750   20.120640   10.849590
H   86.505516   23.764460   85.234108
H   57.875015   31.468119   51.874615
H   72.587196   34.792290   62.362972
H   47.180412   54.501099   26.154703
H   25.239239   20.925970   24.063725
H   56.700554   47.687351   39.824593
H    2.177142    0.846087   49.911629
H   49.726994   49.817394   98.627968
H   90.259644   57.191116   20.793142
H   43.393803   40.388519   18.961185
H   86.720161   82.020607   82.122070
H   55.676620   24.720993   55.328934
H    5.603680   81.967735   79.627617
H   99.728371   59.027252   18.195906
H   87.909744   46.370590   75.106300
H   96.875923   83.650826   11.959732
H   90.837631   27.606880   95.177483
H    5.256985   80.615295   75.381302
H   25.157331   44.796200   71.343575
H   12.645580   87.109665   72.480087
H   39.085812   33.637272   60.655739
H   22.272408   71.926056   61.699730
H   57.874451   17.345953   64.921097
H    5.042705   81.595665   23.030319
H   14.153382   33.138763   24.275524
H   14.152319   45.406849   78.776291
H   62.516556   27.716309    6.501673
