100
TIME:    1.747, STEP:  1747
H   99.180328   61.812515   97.546585
H   52.674278   99.463875   88.200523
H    9.784208   99.590782    2.827600
H   81.769836   60.673851   44.404613
H   79.523331   12.787267   18.336281
H    0.925695   99.315437   51.757473
H   61.408512   79.303825   27.070534
H   82.575539   39.739353   47.790802
H   10.683403   18.326599   90.119453
H   27.098425   41.467690   76.101555
H   37.753342   36.536686   71.468887
H   89.161606   11.258636   68.575706
H   32.136070   56.011482   51.490883
H   68.580421   99.691109   90.187141
H    1.749330   13.978254   66.797379
H   31.281906   58.931679   88.025162
H   83.611282   97.528885   32.415169
H   38.477058    9.744062   38.981247
H   72.472023   51.643593   55.399853
H   45.450096   68.712509   35.276497
H   60.607178   82.298096    9.828114
H   29.861698   46.405777   70.501930
H   62.419060   80.413979   82.365997
H   56.726295   57.634251   77.327316
H   67.101189   47.620758   49.451805
H   38.648525   75.552490   25.426336
H   11.432644   69.858170   34.633587
H   85.135056   37.983761   24.518442
H   49.157776    7.593725   74.590874
H   67.981102   47.601822   22.269901
H   84.823769   78.707260   71.169830
H   76.063873    4.246541   37.535515
H   93.413651   40.663033   55.180511
H   51.916389   13.620510   98.153534
H   37.347404   26.860481   31.108498
H   24.449783   21.719526   14.634023
H   47.358749   40.557961   46.122013
H   91.785042   26.979053   45.721760
H   72.183121   43.214699   74.685837
H   98.645897   48.635334   75.485184
H   15.853584   16.127230   83.503098
H   74.610779   90.263634   84.877167
H   26.288771   73.976181   27.661316
H   67.801537   42.050369   51.545940
H    5.116615   62.960697    5.605310
H   55.548817   96.238136   90.264595
H   54.526783   19.981035   42.551216
H   56.332714   13.370382   76.672401
H   16.097876   87.763023   74.786880
H   62.529972   57.339855   61.475948
H   43.411335    0.981554   71.836945
H   90.034370    1.630102   59.375881
H   45.119148   32.138428    1.406067
H   36.235920   78.703423    8.907240
H    1.680604   11.655951   15.230675
H   95.752121   10.695934   33.154800
H    7.004843   39.138206   22.141806
H   95.972015   11.904834   68.556839
H   28.059074   12.583236   77.365829
H   43.734173   62.069309   13.920878
H   69.902756   97.329292   78.185448
H   36.906708   11.683640   16.307434
H   92.730438   88.020683   13.707311
H   63.004036   51.297737   79.710442
H    1.662568   21.313778   58.256687
H   94.024422   55.424477   49.481625
H   47.403763    8.762067   51.407848
H   59.688545   17.449959   49.719303
H   43.973213   24.258041   50.664612
H   65.774963   36.011940   98.054443
H   66.557213   76.534752   41.194920
H   29.919271   93.545395   84.529106
H   93.083542   31.892445   16.952480
H   91.742271   38.825989   99.379158
H   46.401001   31.129473   33.832867
H   66.961861   19.538530   78.378105
H   25.570894   75.129379   21.944780
H   14.057567   36.488510   10.919353
H   45.291908   48.384617   37.169899
H   13.849419   13.808168   70.415596
H   45.069477   47.355175   84.403023
H   72.403107   55.636795   40.694778
H   28.335407   36.415558   96.293091
H   70.348946   61.654644    3.860786
H   67.265030   39.608704   78.400436
H   11.081837   73.226494   63.100243
H   83.832893   76.331787    6.846838
H   84.078415   65.425552   77.583046
H   91.936958   96.902504   13.906719
H   11.879824   37.399467   86.668663
H   95.516945   67.763092   70.355179
H    7.547382   26.896631   66.807716
H   97.375465   79.977219   54.067917
H   16.081493   19.200686   44.609550
H   26.387909   93.243500   56.230553
H   38.216644   26.743605   77.214035
H   23.933601   67.937248   36.717789
H   13.279531   31.112335   28.084156
H   25.489315   44.380924   98.713730
H   47.735977   33.829456   29.425014
