100
TIME:    9.121, STEP:  9121
H    0.506483   85.582558   90.795486
H   48.576096   99.116486   53.214077
H   36.552502   30.104691   16.273769
H   83.007538   56.865532   40.209648
H   13.467192    3.845592   18.398048
H   86.577271   91.326637   82.029388
H   74.937447   77.232094    3.727259
H    2.993683   77.683914   70.734550
H   29.416283    9.345103   25.952360
H   25.632418   47.349049   64.844765
H   51.841827   33.244125   61.167458
H    7.716530   80.879295   43.685936
H   62.133759    9.906775   18.687904
H    3.464583   76.962410   51.353031
H   91.389656   55.300148   12.272644
H   34.788315   13.973062   75.918030
H   90.650368   85.254036    3.708966
H   96.112411   51.011024   83.347244
H   87.329239   60.992512   43.890621
H   46.778637   12.119356   37.332664
H   23.023643   48.193459    9.684885
H   36.819500   56.192245   42.540863
H   63.963707   20.447142   71.387756
H   71.586197   45.941864   29.669046
H    3.365862   62.820656    3.898785
H    4.599760   57.216415   32.554989
H   75.565559   63.329967   80.942123
H   62.937141   82.177155   68.266350
H    9.498252   76.620567   26.016956
H   50.732307   65.094681    8.482216
H   75.025597   39.953434   87.754608
H   41.662739    0.510482   54.887413
H   12.827349    1.147119   19.488668
H   63.486115   37.837402   87.498741
H   53.959282   69.082314   79.982162
H   65.510406   99.827774   90.751747
H   54.620987   70.504158   27.164328
H   87.004189   92.033623   66.083580
H   60.073650   82.686790   60.419678
H    4.097563   58.306625   55.656738
H   11.895960   69.143936   57.231289
H   31.545792   77.371170   45.603603
H   89.782501   18.202606   60.291004
H   96.939491   65.745094   72.536446
H   65.475632   72.034584   36.620808
H   60.390007   36.879925   20.216394
H   13.001254   20.869543   13.021925
H   56.744320   89.313339   32.932941
H   31.645988   77.048622   80.634308
H   17.233709   69.563683   45.792835
H   42.875301   89.069496   49.578415
H   48.409939   17.377552   75.299110
H   98.060814   74.895386   73.140182
H   65.466156   58.390656   34.299934
H   14.567196   57.926491   77.919113
H    4.955954    2.939317   82.126419
H   74.482910   26.364098   23.470572
H   46.887146   15.521208   78.618675
H    9.632549   24.163740   11.265886
H   57.125729   28.858524    4.187645
H   35.061108   54.401234    3.252179
H   75.195793   43.045090   82.659157
H   93.285172   84.882103    8.016113
H   69.363708   91.448959   79.505249
H   94.350708   32.364529   44.967945
H   41.031349   88.841759   85.489067
H   55.773727   63.696079    7.423496
H   50.315948   39.177681    2.239151
H   11.490423   94.409454   88.179352
H   15.267760    6.769686   82.498123
H   32.393047   74.806786   52.742653
H   22.175310   48.747459   24.611778
H   12.285658   67.146935   27.886890
H   29.420689   72.150856   61.214668
H    1.839477   41.745419   92.862091
H   41.284607   92.143303   82.201401
H   95.163895   36.354862   52.506767
H   60.493771   54.327187   18.168037
H   98.899773   26.727467   19.447130
H   52.222710   12.154957   35.138847
H   89.374199   23.643290   25.133156
H   25.728874    3.625155   23.941420
H   94.797005   59.653599   98.580269
H   77.658699   92.662697   30.354946
H    8.214386   78.346481   63.574997
H   41.372486   44.083885   75.173080
H   76.325813   40.181160   58.467674
H    2.719597   75.203835    1.007425
H   44.972172   86.329903   53.592781
H   59.920803   34.013863   50.269272
H   97.291557   65.936218   26.080956
H   53.160534   81.465988    7.320501
H   70.127213    1.188848   24.345514
H   28.774805   66.533432   41.812557
H   98.892609   32.726109   25.676199
H   47.278809   35.552979   96.337204
H   38.619926   91.114388   12.630945
H   20.671671   37.767521   95.774315
H   74.209679   76.188881   81.058296
H    5.752738   44.573910   19.084759
