100
TIME:    2.671, STEP:  2671
H   36.693024   77.077049   96.700638
H   26.971581   49.562912   46.485828
H   25.666868   66.066467   91.984032
H   81.924927   22.605352   93.756165
H   71.247147   86.849945   93.283600
H   86.600716   98.314400   43.264111
H   12.983807   41.696800   99.328529
H    9.950966   19.677782   62.952663
H   87.969658   29.487732   31.956696
H    1.850424   54.734962   12.282130
H   51.805115   73.716064   82.464951
H   53.897682   57.574066    2.804811
H   73.359138    0.107989   59.652519
H   22.828773   96.843086   60.505505
H   12.989452   31.442408   22.379305
H   94.128677   78.113617   11.324991
H    9.321225   58.635307   16.540018
H   58.222878   64.809898    6.945286
H   86.867226   90.404327    4.082321
H   20.558098   49.091892   98.186775
H    5.775732   90.310577   84.747177
H   18.451721   47.629776   91.817978
H   50.082329   72.899147   55.930145
H   70.876663   68.716156    8.701398
H   34.052849   74.338104   56.268730
H   34.411739   48.021000   38.818787
H   31.755146   31.446238   52.969494
H    7.171135   81.112968   55.062473
H   69.249023   91.426247   30.911886
H    3.411986   24.733047   95.725853
H   21.175173   61.568340   98.057930
H   34.405647   78.714058   51.996208
H   58.500225   73.059319   38.421730
H   90.956856   28.941452   59.225861
H   14.377357   57.013031   87.373970
H    4.787103   94.305412   11.458196
H   35.982826    6.717436   18.929502
H   53.592445   10.067158   10.927227
H   32.329079   23.219740   85.472717
H   11.615442   62.134087   48.183376
H   52.706654   47.830868    5.273264
H   91.566887   31.734032   28.286589
H   34.247723   79.517136   94.402946
H    8.798101   57.538254   41.890114
H   24.966482   26.507420   84.675392
H   43.628010   13.862019   94.014961
H   62.600491   70.095673   51.098282
H   56.382061   22.883764   33.844246
H   43.104744   11.237858   37.926788
H   81.902702   71.400017   96.852203
H   43.340839   11.775576   81.579437
H   34.937565   15.889973   98.714653
H   64.286797   37.496094   47.742577
H   14.840504   63.631287   49.679901
H   28.121910   92.659073   23.069960
H   96.908249    9.724857    1.699661
H   65.580101   12.476535   10.021814
H   27.168304   24.644753   44.757523
H    0.933872   51.625301    6.428701
H   82.760162   33.090054   87.640999
H   28.189749   54.356754    6.144362
H    4.115150    3.081413   74.501297
H   55.405888   25.011320   50.317307
H   26.451754   56.324074   54.625469
H   38.338642   47.516094   44.306412
H   37.261360    9.489540    4.115583
H   73.269081   40.705791   96.017471
H   95.861382   70.294434   93.891846
H   90.024010   57.865303   92.711525
H   84.498596   82.486885   96.108765
H   37.216942   13.664618   30.109188
H   53.730324   62.879807   52.180534
H   32.837997   86.188011   93.260979
H   71.411339   80.353821   44.463081
H   90.951439   32.445408    3.877455
H   88.801399   78.759392   16.205505
H    9.464087   95.042130   38.287830
H   57.468761   76.071297   61.950947
H   89.597244   45.673161   47.480812
H   68.534462   63.487339   90.812241
H   63.151600   56.914379   39.627720
H   41.732323   61.671219   63.430153
H   86.794662   51.839996   84.299500
H   33.911205   40.722504   19.463440
H   22.273972   81.812027   88.829018
H   89.817017    7.163864   27.265697
H   45.544777    9.149475   50.906937
H   98.952988   91.447830   67.967445
H   11.113173   45.454811    6.347635
H   30.185928   99.381302   19.700111
H   33.330963   17.658527   89.868362
H   75.918030   96.382133   84.417519
H   56.660389    7.666481   25.551327
H    5.389455   75.249519    6.910890
H   10.410080   10.477097   77.463829
H   14.535277   90.256905   29.488510
H   50.590744   20.963543   83.577766
H   16.671782   38.979645   13.298025
H   81.473259   48.363926   21.313446
H    5.119431   10.096401   40.430450
