200
TIME:    0.872, STEP:   872
H   28.891066   60.377522   26.146385
H   33.596985   42.104637   15.554309
H    4.891499   96.800690   76.477592
H   39.145920   84.360725   27.973053
H    8.500037   99.747192   44.571861
H   69.058533   35.661522   46.843147
H   12.515777   54.855705   61.884212
H   17.051394   16.176239    2.639308
H   13.094088   78.031433   32.301785
H   88.613602   66.045189   71.143867
H   34.222073    8.094765   12.933464
H   33.391205   58.891830   42.855980
H   26.685833    7.983416   35.389091
H   74.532417   55.873379   72.720146
H   89.109146   76.809761   41.423569
H   10.878956   99.926376   40.689430
H   13.939953   37.317673   84.749435
H   21.555237   13.549859   32.268749
H   86.053192    6.821603   51.787453
H   92.066933   71.025475   12.971196
H   65.669731    8.306900   96.886017
H   75.959084   72.971474   46.219894
H   76.079735   57.946304   33.971718
H   21.994690   93.821205   89.604332
H   30.716354   38.122047   22.858898
H   18.137930   90.384415   86.083076
H   11.134913   71.478035   74.492630
H    9.014970   96.200783    2.394233
H   37.687214   37.319771   34.637650
H   64.490036   37.695217   76.763962
H   12.536366   77.853310   16.967503
H   20.433346   78.318832    9.163473
H   11.852730   22.584467   80.898819
H   75.509682   64.267433   49.336990
H   17.658888   63.686295   29.411127
H   12.414154   35.512405   86.720909
H    4.403820   60.788193   90.699562
H    1.653866   61.103550   86.752045
H   29.679810   23.770042   58.479881
H   84.021774   37.089550   39.008881
H   80.692360   75.700241   22.501747
H   44.796585   29.854036   21.090599
H   65.322464   73.263557   73.795876
H   35.873306   93.929329   41.351124
H   50.371155   95.577438   67.170921
H   32.166023   97.390877   49.561321
H   91.883942   95.248535   10.035216
H   74.729530   65.540962   24.927444
H   11.522056    4.768925   61.621990
H   39.500851   20.653585   78.975342
H   63.173935   62.496788    2.822265
H   96.979301   46.575909   77.129494
H   69.223595   76.348869   16.186188
H   13.000319   95.520737   91.062233
H   50.447678   62.329453   70.333839
H   97.204277   56.779419   99.343292
H    3.626869   19.137062   42.875172
H   74.313461   73.271347   93.895805
H   14.845331   86.686203   22.411869
H   28.486073   92.440346   55.311066
H   48.372673    3.045927   23.770969
H    1.295392   17.922045   53.911415
H   88.858749   38.298218   63.562969
H   39.439384   66.054008   17.778343
H   81.507858   85.500824   43.773670
H   13.947703   41.114372   44.223404
H   62.567726    9.830699   98.892494
H   93.802238   92.886818   99.784065
H   39.002441   14.393821   53.980476
H   41.598934   52.645336   50.948841
H   58.187912   87.523102   90.186493
H   14.378277    7.209909   40.340847
H   97.552383   36.589245   78.332977
H   28.455320   95.072990   78.972084
H   86.840591   11.102187   37.896103
H   69.288307   96.764503   58.747620
H   92.756317   53.478058   63.205784
H    3.146992   17.478315   26.356331
H   16.338778   57.846214   20.929739
H   58.751751   87.142227   64.289459
H   70.191643   19.420607   91.750702
H   54.426540   57.223881   68.319389
H    8.533977   20.598810   71.788200
H    4.064642   82.525734   14.449647
H   16.402573    6.007022   39.871704
H   42.472122   63.661652   14.626665
H   64.180733    4.101057    3.220256
H   70.075752   95.022369   35.279686
H   85.030350   73.595444   79.446777
H   20.278633   14.376013   47.912502
H   14.750322   40.348637   77.943390
H   79.653145   94.080505   12.157963
H   77.283554    9.734306   77.730133
H   31.687857   71.727898   86.458244
H   41.138542   48.377190   94.261864
H   43.099464   41.839516   99.346474
H   87.878716   92.418724   25.547874
H   95.425011   39.274570   55.798904
H   22.697227   63.447037   55.120964
H   78.193260    8.196550   27.404703
H   38.063869   97.900513   98.699806
H   14.072572   86.218155   62.378456
H   36.280167   14.072753   39.334133
H   52.243858   69.106354   15.260470
H   24.500956   19.167221   45.577679
H   12.443995   95.830490   14.301246
H   89.692970   36.928379   52.096432
H   61.026859   58.539970   94.303596
H   88.857903   32.112022   29.693012
H   24.668825   19.248590    8.630434
H   55.509697   90.574776    1.240509
H   11.370186   79.237976   97.710075
H   46.117264   87.608582   80.188484
H   61.083305    5.772259   58.657166
H   42.759804    8.285617    4.612666
H   88.246498   87.309883    7.445776
H    6.590163   17.341993   91.547775
H   37.564632   58.104176   21.345451
H   42.863396   81.441574   52.305088
H   87.461159   59.288631   72.919754
H   47.150764   25.959202   66.810295
H   91.020416   12.508411   66.778168
H   47.473213   95.167435   42.778118
H   94.766144   44.576561   90.188713
H   58.005363   93.304619   71.910728
H   70.876007   79.644165   13.328857
H   79.677284   52.140854   46.646927
H   61.604637   92.526756   40.340282
H    0.245255   29.606747   70.487617
H   98.377945   21.153816   77.268639
H   74.120979   62.619781   27.563625
H   57.441643   92.319687   24.231098
H   90.374031   13.342684    2.077075
H   69.931000   29.206722   57.485210
H   35.647282   89.942535   27.375320
H   45.525253    0.815737   74.370750
H   69.939041   88.174995   86.800758
H   96.609093   44.487827   73.212471
H   62.832642   53.171951   71.400612
H   43.790291   78.779686   77.896576
H   81.906174   44.483124   35.325317
H   28.143852   60.213554   60.979832
H   34.688942   68.392616   78.067169
H   28.753487    3.650301   88.597328
H   70.008911   48.806808   69.734680
H   69.097252   72.863754   99.577354
H   59.678764   94.010094   42.756657
H   25.395302   49.893242   65.198997
H   82.080780   38.405174   91.661682
H   29.608376   95.574760   66.346115
H   53.944702   72.043228   46.573048
H   60.391525   89.621696   28.346878
H    5.535630    8.207058   81.279251
H   26.616364   15.649523   60.334217
H   38.673725   70.570572   72.186333
H   82.263634   45.095982   73.505951
H   65.926743   79.837601   88.239182
H   55.031448   26.519699   24.530605
H   83.456139   99.352829   79.166451
H   56.594074   31.156912    2.494418
H   60.163986   58.733421   66.611992
H   13.930155   19.781109   30.068848
H   92.423820    7.014816   36.969265
H   34.473206   38.745914   44.160034
H   52.902855   43.533218   16.034388
H   22.802475   44.330074   58.847019
H   64.017082   87.344795   58.921558
H   24.184307   59.687233   74.146744
H    2.661099   26.114927   35.364594
H   55.314415    5.690373   83.286407
H   67.291260   13.149764   35.923035
H   24.329508   41.972435   59.398880
H   49.884094   50.296772   72.641312
H   63.443413   59.422112   88.902298
H   42.063599   90.282272   69.514809
H   20.416618   51.078896   23.904175
H   28.925220   72.664978   13.344574
H    7.331339    9.803581   72.961502
H   59.438290    6.687226   61.743793
H   56.237373   61.234520   95.300468
H   69.879303    7.837798   27.025341
H   31.975241   30.877529   92.688370
H   36.534771   89.499725   18.588272
H   65.244179   26.389767    0.440885
H   93.695877   60.922577   75.793076
H   12.490997   41.556656   87.117287
H   53.358582   93.699348   13.268774
H   60.058319   93.995064   47.641273
H   88.315346   63.991734   73.766434
H   61.106277   54.835384   73.687881
H   78.010712   10.114708   74.788277
H   42.471916    2.104460   16.574430
H   18.138649   32.559578   72.284981
H   24.062563   88.753845   46.050007
H   63.206161   26.026497   19.748947
H   76.871109   11.934250   20.907665
H   13.662253    2.792712   24.798323
H   10.541956   84.845451   29.143013
H    3.485455   13.380281   49.751808
H    1.416006   13.580669   88.968338
