100
TIME:    9.681, STEP:  9681
H   62.635406   34.227577   90.282791
H   33.109787   29.463223   88.523003
H   46.178356   70.393898    9.699564
H   83.101532   33.794243    9.513356
H    8.449186   48.731827    3.214958
H   77.895630   90.719948   37.487602
H   45.588322   15.045039   47.519985
H   58.978790   26.131603   19.316040
H   15.650414   55.503296   90.702888
H   10.334871   55.389820   86.771034
H   99.751923   55.777084    7.224340
H   86.344139    8.948996    3.825330
H   26.424530   76.010017   63.035690
H   75.736450   75.236336   93.967827
H   98.191414    5.278175   85.340843
H   12.270573   64.993271   29.433537
H   45.618629   22.294075   54.687973
H    8.089576   23.761269   63.933197
H   96.053604   84.483047   73.396820
H   31.692577    0.226977   75.460106
H   89.791962   92.443611   94.483932
H   90.507248   56.935654   94.851730
H   56.486900   15.894810   55.366028
H   19.553028   52.641083   88.079071
H   83.336777   18.408424    8.032398
H    1.958105   40.707626   79.857048
H   27.275166   40.049328   92.050522
H   15.687265    8.316060   86.774651
H   21.675335   27.427839   99.546738
H   72.205696   51.234818   53.000130
H   97.062950   90.169891   43.449188
H   77.021622   85.035751    3.045424
H   52.274895   60.174271   69.937889
H   87.147003   86.516869   63.906212
H   40.022514   26.682411   14.052176
H   14.190207   43.691578   88.991493
H    8.333211   49.996346   71.290298
H   63.856022   81.788261    5.603314
H   36.434124   70.484642    6.151897
H   51.350971    5.879464   99.715164
H   73.623810   88.361465   70.424644
H   84.351692   79.568832   74.188469
H   94.601837   21.562897    0.742214
H   61.187199   75.144508   27.290195
H   16.893499   49.930912   84.538895
H   53.165276   47.561077   22.491480
H   17.379795   51.327137   18.399408
H   56.778500   95.081161   67.582596
H   48.013786   30.669857   58.296791
H   28.987249   78.091515    6.636878
H   45.187199   35.182442   51.871277
H   75.625519   65.415100   38.538857
H    9.675961   78.142456   40.615242
H   52.498756   49.251862   59.011848
H   69.979195    7.000955   82.678635
H    5.653433    2.350251   63.062698
H    9.986132   10.205267   76.731071
H    5.189025   62.636131   64.194847
H   53.800167   47.828194   68.275826
H   20.173214   71.902786   88.259926
H   70.389313   28.360285   59.595463
H   55.320305   37.832687   57.322334
H   31.311474   46.681534   69.620956
H    7.816396   94.499496   64.303833
H   16.577679   87.637398   97.117607
H    6.630799   61.002403   18.601130
H   10.843521   83.058807   34.461559
H   11.632966   71.204048   29.010391
H   39.402237   54.171417   53.058392
H   26.641052   34.895649   81.310379
H   14.608799   36.701916   46.026344
H   76.059746   30.153709   65.657867
H   75.772964   39.448086   13.527149
H   17.094639   36.709812   27.941004
H   28.813662   42.570004   35.321430
H   54.524963   28.033672   44.520508
H   46.024361   87.884933   62.440239
H   86.803017   17.712196   49.096382
H   25.752882   25.082569   25.697741
H   24.759895   81.649025   86.894508
H    0.337304   29.436747   58.603615
H   67.749229    7.260486   77.090782
H   30.217638   69.018837   51.913204
H   16.186848   40.583694   79.207329
H   80.947540   43.314827    9.289870
H   28.482471   64.655647   14.061383
H   13.727022   99.464272   85.170555
H   11.725151   30.394186   95.204697
H   56.593266   55.149483   49.012703
H   10.408065   10.972481   70.287094
H   20.209738   96.176697   37.907127
H   94.594864   23.583036   17.988871
H    6.024334   17.992399   67.651176
H   80.543861    0.329041   83.184227
H   89.211212   82.564705   38.543800
H   93.532471   13.440392   67.412643
H   94.170403   23.250824   80.424713
H   19.590738   65.474655   84.529198
H   47.532433   78.607094   34.152500
H   40.535156   30.205357   65.139450
