100
TIME:    1.194, STEP:  1194
H   36.576576   12.525379   98.052872
H   68.056953   69.483269   53.317379
H    0.279110   59.805096    9.320351
H   81.677017   83.456749   74.717033
H   84.476501   68.461891   33.330193
H    9.501282   99.914543   96.991081
H   90.393044   41.962696   83.825127
H   26.040253   91.898483   98.564262
H   24.277199   71.495132   24.928652
H   42.210396   33.527428   54.447502
H   89.192062   14.285470   24.737680
H   10.267330   83.539864    7.939149
H   67.310730   89.468590    6.455440
H   95.962090    1.395938   48.104694
H   95.023689   63.371548   93.377426
H   53.516327    7.299992   33.928207
H   28.070889   60.958115   82.066383
H   26.659485   36.636566   58.152634
H   63.856781   28.443010   26.267275
H   60.347580   80.458359   97.625755
H   93.422989   37.351135   24.837402
H   76.836296   45.675880   17.587887
H   69.802406   84.911491   98.187454
H    8.106033   51.001896   18.397156
H   86.880119   91.480476   45.371979
H   41.184177   92.032120   77.258774
H   59.119713   92.843582   23.659826
H   31.795021   12.171424    6.239438
H   37.133469   57.420902    0.732091
H   46.776134   61.288437   78.308342
H   63.070316   29.116362   14.929222
H   41.146976   19.524422   88.729530
H   54.462299   81.123772    5.361905
H   28.551262   64.299751   21.449800
H   51.093086   68.662880   97.435883
H   76.368378   78.279007   16.535948
H   94.319359   60.809425    2.547930
H   14.641844   37.100567    6.699484
H   97.041794   55.019615   27.687553
H   50.731522    0.404426   31.975180
H   53.643661   97.151924   70.474655
H   24.311272   65.447151   58.896229
H   21.525457   70.660004   87.717079
H    3.114888   32.781105   97.477303
H   53.084236   84.781448   58.283623
H   62.683239   85.690498   88.020058
H   48.687611   90.149918   37.825874
H   56.303181    7.676767   42.455868
H   99.934441   33.562057   96.844101
H   50.931789   48.922840    0.155948
H   43.453526   54.370689   66.006210
H   63.158989   52.945286   95.677170
H   33.647537   28.931946   33.523743
H   49.040752   87.723763   84.504959
H   45.706116   63.178349   10.538031
H   95.060196   11.277109   51.980225
H   71.945129   55.094673   69.546761
H   37.150574   64.129143   82.800369
H   84.445168   89.217499   19.818954
H   80.226654   19.562330   29.649376
H   35.019604   23.045525   21.302490
H   56.533752   16.831772   41.330650
H   55.222054   25.731926   51.645119
H   25.028708   48.289551   94.721840
H   79.714867   65.482414    6.755715
H   27.995857   82.915840   16.783949
H   91.771347   89.642548   24.709091
H   97.887871   85.822861   23.282705
H   16.410126   63.993103   85.346870
H   54.572701    8.197220   99.218903
H   84.116920   14.161085   47.827274
H   75.515762   11.898972   44.040970
H   29.141205   59.244579   31.132725
H    3.911111   73.821869   32.245628
H   19.739822   30.342619   91.910820
H   53.887966   84.097191   15.588937
H   75.362999   23.058802   12.161453
H   88.076614   72.649025   80.380600
H   18.783587   50.004734   31.001984
H   40.969589   43.926727   18.056885
H   34.247601   41.634136   51.350948
H   30.909615   52.025284   86.935623
H   93.345329   27.185366   43.622410
H   32.306431   14.333718   54.371315
H   94.191040   74.199493   32.007454
H   23.810726   52.913662   24.698402
H   46.899284   16.539406   80.477570
H   75.176208    9.700079   83.330666
H   80.461128   27.691786   18.431168
H   60.772354   60.152832   66.898170
H   72.885933   37.904308   58.676830
H   66.630867   85.306541   56.271614
H   61.893211   63.404922   11.285793
H   62.633385   85.657890    7.324375
H   35.949528   42.778770   43.522758
H   92.541061   48.580925    5.777218
H   67.828262   36.201519   68.521027
H   11.249110   26.403870   36.932449
H   51.832573   41.997158   45.034939
H   13.392868   48.035015   82.686470
