100
TIME:    3.106, STEP:  3106
H    7.276460   37.185234   96.302383
H   14.871206   73.148239   73.925552
H   33.144096   97.362625   86.879738
H   81.997940    4.682245   69.914001
H   67.350891   21.717098   81.488632
H   79.856941   97.843132   86.343559
H   90.185020   71.070580   33.346184
H   75.760818   57.309505   23.011066
H   77.276527   87.664078    4.574699
H   89.962791   60.980919   29.317461
H   11.342468   91.219345   40.563808
H   37.293793   79.378494   71.840660
H   45.689293   73.790009   16.418087
H    1.290412   95.502296   93.607430
H   18.281258   92.587143    1.468820
H   76.638672   40.067047   75.216164
H   74.341072   87.408569   56.139782
H   67.517540   43.655952   91.863953
H   93.644188    8.652415   26.998613
H    8.839462   39.855709   27.803522
H   79.962280   47.005745   72.938934
H   60.155594   48.207245   54.773682
H   44.274452   69.361320   43.484695
H   30.460480   73.933289   76.395576
H   18.495819   39.838326   59.478310
H   32.417149   35.061138   98.046303
H   94.244797   13.363708   61.601658
H   70.465843    1.417293   69.441521
H   78.707565   30.892275   10.350344
H   20.091167   13.966746   30.306232
H   38.295742    0.577115   63.642113
H   61.871925   66.693413   11.726051
H   89.139862   41.232155   77.609962
H    9.336726   89.076454   40.899521
H    3.563758   24.130493   13.862801
H   42.609188   28.477095    9.963082
H   77.704384   90.786606   53.205929
H   35.614578    2.105696   41.622822
H   13.966325   13.742945   43.317490
H   70.642197   21.409689   82.408241
H   22.978483   62.755451   15.521750
H   52.471581   51.258453   48.723373
H   37.994633   82.125702   25.823582
H   81.020264   64.829254   84.421959
H   87.232979    9.345652   21.899874
H   38.015942   22.158985   95.780556
H   66.000290   93.751984   55.276634
H   56.405293   27.362467   60.759605
H   55.819016   75.210075   20.573946
H   91.022728   78.017677   66.425568
H   43.307652   69.779205   86.166000
H   56.078236   75.526154   70.159813
H   73.307259   40.018372   22.477280
H    4.767986   56.532402   68.875763
H   93.488541   30.786034   26.765703
H   97.452530    9.267660   86.891235
H   93.159218   99.924126   51.393929
H   94.777336   83.564056   33.553299
H   35.240189   70.004745   73.034752
H   54.053810   66.526581   75.268562
H   55.629707   34.128750   72.226822
H   88.676598   99.031876   54.819344
H   84.926964   95.334892   20.482742
H   56.323845   58.690369   42.813908
H   55.606289   12.772559   84.817131
H   10.538660   87.864449   29.834904
H   38.368721   55.743214   17.019976
H   65.813087   95.172058   14.687362
H   11.703785   26.608971   65.431099
H   93.313293    4.364746   95.192780
H   23.403118   84.067268   24.890396
H   17.863543   48.443085   84.028839
H    4.474087   64.668999   82.109856
H   61.839207   52.826454   18.609734
H   11.924914   33.066021   36.854282
H   99.083000    6.637689   86.935089
H   48.960018   57.340126   45.980778
H   77.905853   47.627384   85.972610
H   10.457770   44.395428   52.336197
H   47.201302   39.794521   53.336502
H   71.661301   61.414654   65.627090
H   74.371536   64.512100   27.056025
H   14.315357   59.101501   25.730930
H   63.836704   77.946014   79.731445
H    1.092294   54.603466   46.660515
H   79.807556   23.142162   57.473293
H   74.597435   77.521416   71.649353
H    5.954218   56.620483   63.441032
H   20.141483   21.235044    2.788651
H   91.726196   81.486404   35.249939
H   51.132935   41.146595   99.054764
H    8.104244   29.094660   92.707848
H   84.555298   20.711973   59.196190
H   47.434978    1.633986   36.240410
H    2.888332   71.513733   87.460014
H   50.464462   73.078865    7.019993
H   16.062855   45.927456   58.560753
H   18.268118   42.683411    6.337700
H   60.750755   50.239040   84.876671
H   32.136494   98.930244   98.528305
