200
TIME:    0.080, STEP:    80
H    4.554674   63.006001   12.603676
H   26.538198   30.542160   83.401817
H   21.491268   62.134979   37.467339
H   12.449235   75.103645   48.683655
H   16.908985   79.674072   55.958916
H   94.823669   57.157646   70.285759
H    1.041155   55.417656   46.554440
H   99.303169   81.977203   30.751652
H   80.930672   89.904907   51.622616
H   16.493526   77.140099    2.383339
H    6.616742   91.176216   87.905518
H   30.116180   37.752213    5.118556
H    7.247172   81.697823   67.849297
H   11.966549   52.531887   34.555843
H   27.346785   70.712898   43.372269
H   33.964085   32.558773   57.774544
H   76.680557    0.224967   23.200298
H   40.361618   75.475388   46.368877
H   59.701939   35.494274   40.128487
H   89.547218   81.901939   43.673115
H   56.164909   68.771194   33.170795
H   93.591042   42.698647   76.740463
H   99.796471   63.704788   52.975319
H    5.243646   86.640144   92.094765
H   96.292076    6.268879   51.119579
H   18.793539   55.236057   12.240973
H   95.797615   55.586308   42.648758
H   90.838409   63.529045    0.310272
H    4.329743   61.393013   39.275253
H    0.279665   16.478151    4.160402
H   13.570385   44.764683   15.999195
H   34.835598   59.756332   89.663918
H   30.989265    5.542698   71.224808
H    1.722161   63.403358   35.493668
H   55.666660   96.412338   35.436131
H   38.287697   53.570023   77.641762
H   81.672180   77.882370   84.753761
H   40.829334   40.616520   22.361351
H   58.991882   52.129986   40.875114
H   91.617172   40.346447   69.946381
H   80.457291   12.699378   96.213310
H    5.375469   46.461990   44.575401
H   79.582718   91.457466   44.387119
H   37.637711   55.463570   13.025985
H   23.310392   71.413559   38.589989
H   43.311378   18.002541   40.947765
H   76.959015   34.050926   92.670708
H   94.011086   65.553047   53.399612
H   80.892624   34.823940   61.050976
H   67.842697   17.079458   12.481657
H   82.014389   72.521263   34.209675
H   27.254450   32.944073   60.101089
H   47.862190   99.001091    5.834948
H   24.787880   78.807236   79.333778
H   83.971359   79.943283   95.947914
H    7.356741   76.291710   73.408966
H    5.887103   16.139992   51.370899
H   65.660629   54.859913    8.191247
H   31.557322   71.386642    3.256704
H   46.803852   96.887611   69.951996
H   50.937706   18.498049   46.911186
H   87.061935   16.045855   47.839985
H   67.039352   21.891954   90.282867
H   20.249390   64.924065    0.095190
H   68.776352   73.693817   11.386831
H   45.015945   10.345139   29.987320
H   92.151711   26.536926   82.529457
H   98.237419   91.086159   84.103828
H   10.831402    3.691077   64.004951
H   46.157986   38.841290   50.991138
H   58.535355   73.824799   69.001556
H   36.636951   28.027460   45.884823
H   72.415665   22.896984    4.853148
H    2.652798   12.481538   55.915035
H   77.196793   98.281349   75.135910
H   49.269569   24.725407   63.923004
H   96.103851   23.993776   74.408760
H   32.481426    3.056413   53.438728
H   10.314129   22.564825   38.482159
H   70.686981   91.559280    1.849562
H   36.577328   32.806122    3.508576
H   19.601242   71.467445   92.803520
H   11.623950   11.911235   94.961113
H   29.891657   56.627663   88.636688
H   44.605850   97.631958   62.316498
H   20.159462   91.372467   31.113510
H   28.684198    2.450705    1.404521
H   76.662056   24.499239    5.407371
H   60.793732   71.652718   76.584053
H   24.245522   78.875526   56.625759
H   47.949692   33.511570   81.466156
H   85.169930   87.131653   94.876633
H   39.658985   18.666603    0.286697
H   67.202820    0.181940   64.711357
H   21.070641   59.090508   61.275963
H   75.898048   24.132027   36.584385
H   77.135185   19.813231   91.438354
H   11.293192   25.952442   47.078678
H   40.643394   71.380814   52.314232
H   64.422447   95.327286   27.211344
H    2.727679   76.002563   61.405403
H   84.622597   74.235916   66.747169
H   19.862745   43.017120   28.266819
H   14.187609   67.644073   83.808609
H   25.550837   29.575394   19.900158
H   81.088875   34.606541   51.381615
H   58.078960   28.110086   57.003860
H   65.693581   28.131187   24.928434
H   68.730400   42.109306   91.395775
H   99.227081   30.291224    4.754183
H   45.089439   97.457161    0.683279
H   79.569397   59.321251   88.688652
H   59.872971   78.417969   97.415596
H   63.766167   22.846748   79.079956
H   69.189613   75.305969   32.382725
H   20.568081   10.478098   71.716370
H   39.153309    6.189689   82.314865
H   41.582882   19.121113   37.176750
H   12.785987   51.706532   91.447372
H   66.560219   43.481503   43.374130
H   38.884651   20.696201   92.762749
H   25.192783   31.270313   43.481743
H   28.378973   28.570614   19.282751
H    6.434642   73.076881   24.871735
H   81.703331   12.912109   98.104980
H   41.860531   57.974377   28.620680
H   99.363686   48.442856   77.233963
H   78.928429   86.315086   33.651257
H   90.498726   58.275295   88.536507
H   59.990067   24.907707   63.775780
H   42.150215   90.898590   97.296860
H   87.841362   84.464462    5.553842
H   92.960213   74.810310   96.184967
H    8.766194    8.900631   47.737488
H   96.521988    4.263141   63.769180
H   66.619553    1.832196   86.038780
H   68.627823   86.156807   47.373573
H   89.853600   69.216042   85.726448
H   42.131104   42.096085   71.587929
H   43.361275   16.763742   99.903290
H   42.696514   67.774353    9.741639
H   64.604019   36.149376   42.517033
H   60.148933   53.816044    4.780861
H   65.044624   32.319611   75.473061
H   32.781185   75.073471   43.836613
H   40.077705   59.218773   37.509132
H   40.947075   97.478477   48.427525
H   47.021339   79.374504   69.742943
H   60.907932   71.471970   99.535034
H    4.337291   86.889297   95.977547
H   81.859871   58.592663   52.552082
H   27.052362   11.536871   53.166367
H   68.742889   37.821255    9.081604
H    5.680308   97.469803   79.906380
H    7.267924   49.653576   57.858315
H   58.752342   43.132175   49.138474
H   57.636456   56.085613   78.861252
H   43.771286   39.227036    5.975617
H   19.704725    2.337207    8.538365
H   65.473000   63.472137   72.100937
H   52.384293   90.909630   87.670036
H   51.116314   23.885464   36.930084
H   58.332150   41.545654   37.298580
H    5.401724   15.479326   78.044495
H   60.486168   16.659285    8.252432
H    9.157043   69.529579   63.176456
H   77.654961    0.154827   50.525532
H   23.492443   23.652901   41.396503
H   91.898888   28.690535   37.234741
H   19.171318   11.667142   92.205109
H   82.421631    3.731048   35.989502
H   51.690285   71.389496   56.966782
H   34.581512   84.329239   94.925980
H   73.192101   78.379730   70.537918
H   78.874390   96.240158    6.754129
H   95.967239   46.796593   23.133242
H   37.061420   47.922981   80.214851
H    0.311960    9.048271   62.834301
H   79.693367   25.099047   71.006180
H   93.911613   52.738792   84.127922
H   84.338959   79.455772   45.439392
H   16.000433   29.910732   63.775105
H   73.000870   90.331772    2.903310
H   47.997032   24.924013   71.304054
H   83.453873   95.274078   79.056015
H   95.910820   34.873672   83.153419
H   25.781042    7.265275   95.720230
H   98.107819   60.447529   19.928097
H   11.251862   60.459904   64.714798
H   46.704025   59.143673   63.681538
H   40.176838   36.317924   80.444038
H   48.964561   80.581055   26.662352
H    0.546501   13.717566   54.141052
H   37.898975   57.144974   30.088614
H   90.385330   61.401943   22.339661
H   74.937515    9.990837   31.758450
H    8.397742   81.196617   98.066360
H   33.559555    0.586023   51.479042
H   14.046947   11.164202   85.172829
H    9.676590   40.413273   99.971695
