100
TIME:    9.741, STEP:  9741
H   58.577789   28.725395   90.227859
H   31.452759   32.714718   92.305962
H   47.209698   74.710609    8.995180
H   83.111603   31.322256    6.224470
H    7.911543   53.541092    1.588184
H   76.965454   90.654945   43.429832
H   42.443943   19.096704   52.212063
H   54.262909   31.322186   13.806900
H   14.175499   49.734558   86.926338
H    8.695848   56.251331   89.120277
H   94.170868   58.191330    1.444789
H   84.054405   11.956388   99.554558
H   22.598541   72.378120   57.073318
H   72.765564   75.051399   98.533562
H   98.920174   99.918701   82.455101
H    9.857929   59.745468   24.452839
H   40.793800   26.262428   60.150009
H    9.372687   20.841652   61.853577
H   96.988358   86.999832   76.559967
H   30.076214   98.952606   79.545189
H   86.231476   86.470711   92.855209
H   96.259506   57.015305   89.742172
H   55.685814   15.406948   53.649414
H   13.978153   53.358856   83.623199
H   81.190781   13.649971    8.475285
H    1.675064   38.938828   74.210991
H   22.101292   37.554974   93.240707
H   10.624743   11.116658   88.757683
H   22.979961   32.871372   96.710434
H   74.506416   49.749832   57.770027
H   99.424095   95.550446   38.702179
H   80.810074   83.377731   97.490944
H   56.501427   55.784317   75.343163
H   89.682098   81.018211   61.378441
H   38.529289   22.139565   17.702780
H   19.405737   48.391438   88.802895
H   14.087987   47.799080   76.018082
H   61.376316   80.690544    9.837203
H   33.901318   69.177269    0.337595
H   45.699879    0.262361    4.435837
H   69.523163   90.420486   71.838219
H   79.295235   79.805038   77.249992
H   95.118195   21.922928    5.075977
H   57.356174   76.151588   33.156437
H   11.684149   47.556034   89.670425
H   52.391197   48.705486   22.735239
H   17.849003   54.590534   18.975504
H   56.782162   95.699142   71.295059
H   49.767479   25.700832   55.903145
H   30.246557   79.005211    2.441646
H   45.521366   29.415077   51.983887
H   78.541473   59.847435   34.600258
H   10.920506   78.490356   37.130287
H   51.109444   48.272705   61.659554
H   65.201973   12.259171   83.188583
H    5.728163    2.287137   61.020157
H   13.789804    8.473890   82.437553
H    0.721370   56.969933   62.649437
H   58.532528   50.363747   63.669773
H   16.214016   76.514297   86.553383
H   74.174103   25.569986   54.917576
H   53.190788   37.274216   54.607338
H   35.389729   42.595078   65.510239
H   11.936609   94.826340   62.674736
H   18.959194   82.845528    2.705149
H    2.945057   58.019615   22.148798
H    6.029449   85.133392   37.358288
H    7.488259   74.635445   31.878738
H   42.392807   49.860199   49.295116
H   27.859619   37.909107   81.183121
H   12.703243   32.619122   45.306740
H   71.118645   28.161522   70.056061
H   71.860916   36.480404   11.988605
H   15.773991   32.912663   24.376169
H   31.703753   42.658352   39.870686
H   55.943573   31.879116   40.483490
H   51.473579   82.692062   63.504539
H   89.621925   13.789162   52.410133
H   28.629927   24.906330   26.367449
H   21.817619   78.380592   81.725441
H    1.511821   30.057474   62.189735
H   72.251793    7.649985   72.070946
H   34.012848   70.022255   57.627468
H   20.314732   45.717972   73.726982
H   78.026093   39.561623    3.473639
H   27.101398   66.859322   18.228001
H   17.734285   95.101784   88.031578
H   12.690002   25.592932   94.583054
H   57.838383   51.808723   48.521980
H    5.103156    8.503761   72.432175
H   22.665182   99.416748   39.174217
H   99.034256   28.095442   19.131907
H    9.870379   19.792784   72.291069
H   86.004066    3.943737   87.749962
H   88.173920   77.190559   39.922585
H   98.488220   11.071121   64.313583
H   89.407829   26.693893   76.974091
H   19.474924   68.443710   83.324364
H   44.674156   78.866188   29.126713
H   44.261810   28.665668   59.359356
