100
TIME:    2.557, STEP:  2557
H   44.402496   87.531456   96.805008
H   30.142693   43.381592   39.294727
H   23.707319   57.864716   93.321709
H   81.905792   27.302443    0.004459
H   72.268234   77.712341   96.374695
H   88.368050   98.437904   31.973875
H   18.958450   33.998634   90.413582
H   18.911140    9.815540   73.419334
H   90.771996   40.448334   39.133007
H    4.965437   53.098091    7.817703
H   62.409119   69.128998   93.446426
H   58.249046   51.859802   10.919214
H   80.611122    7.005308   70.983299
H   28.473457   97.194466   51.829739
H   11.602634   41.625427   27.859171
H   98.712265   88.084442   20.788317
H   18.488449   51.095497    6.162044
H   55.786705   70.353691   10.897869
H   85.091194   85.622437   98.076370
H   23.629189   51.512409   90.425117
H   12.540619    1.659210   87.841751
H    7.522430   47.478439    1.526122
H   51.604393   73.826302   59.191711
H   81.468491   67.348907   17.168236
H   38.130241   83.380035   55.427681
H   34.934460   51.417377   49.503677
H   41.585930   36.185459   50.707272
H   16.789946   75.791832   51.293842
H   66.770233   81.083168   36.300774
H   99.040825   27.554520   86.663048
H   16.688669   51.346081    7.077348
H   27.207588   81.864296   62.549767
H   50.469814   81.400230   28.151709
H   86.140175   39.388901   64.028625
H   17.211315   65.630524   80.431618
H   94.875229   85.350456   11.850019
H   25.048912   10.892675    9.946860
H   58.303886   12.153690    2.882752
H   37.141411   25.703314   96.520294
H   22.352953   72.806084   39.213634
H   60.497013   43.919598    2.586901
H    1.812567   26.617287   22.931097
H   33.265774   78.833511   86.168144
H   16.077482   55.627411   30.744207
H   34.854992   31.004902   74.920265
H   45.098759   11.687641   93.552254
H   61.708996   63.896088   50.003265
H   56.375973   21.710035   26.790565
H   39.772728   20.679005   42.474716
H   79.512627   69.665733    4.825591
H   43.349537   22.781839   80.377441
H   29.397455   26.468319    6.198646
H   61.922050   36.835083   54.363991
H   17.480198   65.490990   44.649261
H   37.197762   82.665634   22.102797
H   96.765610    9.844666    5.580490
H   58.353153   15.766150   99.179314
H   35.657074   35.410828   47.693802
H   91.942467   46.808620   15.180571
H   90.283508   24.327314   90.883430
H   20.998213   59.657887   15.032565
H    8.160797    4.142727   79.658920
H   47.672932   32.785545   58.138107
H   18.623560   55.703941   57.720913
H   33.813328   56.621517   33.689362
H   44.264595   15.156837   97.375145
H   82.415382   36.764950   90.513687
H    3.736210   63.774780   88.441986
H   84.342796   66.056618   99.860878
H   82.188538   76.753487   96.348816
H   40.836845   21.421427   31.476871
H   63.129723   66.663223   43.833534
H   40.270889   91.827477   96.183342
H   73.919701   87.567535   51.238441
H   85.454613   32.282764   95.235458
H   86.106911   71.453484   23.876274
H   99.113586    4.922731   36.271748
H   52.112835   83.525063   55.654819
H   84.129990   46.008015   46.208366
H   74.125221   69.695694    0.633460
H   60.920689   55.734997   32.814091
H   33.178322   60.926712   72.962624
H   79.582687   49.936981   73.441528
H   26.068661   30.967379   29.876099
H   27.825157   88.942245   99.880074
H   92.440186    2.976435   19.349224
H   37.930977   17.438202   45.470993
H   97.117813    0.574983   69.153786
H    8.747232   51.802254    7.280334
H   40.265392    4.071754   15.624913
H   28.665619   11.502866   87.460892
H   67.483185   87.809868   82.244881
H   49.345783    4.250751   16.731617
H   94.371101   68.334999   99.224510
H   12.381371   20.688843   74.844139
H    5.119320   94.758736   35.376724
H   59.639633   14.421329   90.133949
H   16.253431   38.009003   15.122110
H   86.903984   47.872517   30.862442
H   98.039627   13.024635   51.410187
