100
TIME:    2.185, STEP:  2185
H   69.559723   21.645584   97.145584
H   40.490532   23.211588   15.829037
H   17.313002   31.101151   97.686760
H   81.843353   42.628807   20.395489
H   75.600204   47.894901    6.460968
H   94.135139   98.840919   95.133354
H   38.454548    8.878504   61.322701
H   48.149605   77.631805    7.573921
H   99.916466   76.214508   62.550457
H   15.130217   47.756721   93.251030
H   97.011658   54.160679   29.279543
H   72.446548   33.213257   37.397881
H    4.275160   29.512001    7.958116
H   46.892952   98.341072   23.519344
H    7.077301   74.854309   45.741928
H   13.670380   20.621162   51.667740
H   48.396713   26.494545   72.292068
H   47.837090   88.443962   23.795773
H   79.295723   70.018372   78.476212
H   33.650642   59.410938   65.097603
H   34.615631   38.693981   97.939835
H   71.858429   46.984604   33.205322
H   56.571129   76.851753   69.834717
H   16.031380   62.887363   44.797478
H   51.435417   12.884048   52.683205
H   36.640179   62.500294   84.371819
H   73.664513   51.650455   43.325283
H   48.177567   58.428127   38.996204
H   58.681549   47.332069   53.885857
H   84.776360   36.761429   57.089687
H    2.053683   17.986048   36.512630
H    3.719492   92.144020   96.987694
H   24.265736    8.617592   94.639008
H   70.422585   73.480576   79.700806
H   26.459377   93.750763   57.778404
H   62.531841   56.128254   13.128598
H   89.368958   24.517141   80.634827
H   73.679848   18.962376   76.630272
H   52.844810   33.807922   32.569084
H   57.390118    7.630466    9.945021
H   85.920631   31.156412   93.822189
H   35.245850    9.920798    5.454906
H   30.061522   76.602737   59.297180
H   39.831718   49.392029   94.371872
H   67.122017   45.680897   43.087700
H   49.898045    4.592304   92.042366
H   58.799908   43.665863   46.430054
H   56.356106   17.879972    3.773355
H   28.899832   51.486958   57.315323
H   71.713432   64.006493   30.842815
H   43.377918   58.695961   76.455139
H   11.319956   60.988323   30.620770
H   54.205162   34.678101   75.969139
H   26.093937   71.558922   28.233816
H   66.813431   50.054249   18.946791
H   96.300156   10.235619   18.244247
H   34.771091   26.499992   63.799126
H   63.357269   70.541260   57.275345
H   62.601967   31.090948   43.739883
H   14.831993   95.733536    1.463912
H   97.531723   76.958443   44.035488
H   21.362381    7.605961   96.489059
H   22.439613   58.152794   83.658615
H   93.079224   53.680351   67.820763
H   19.047756   86.331818   99.045639
H   67.117256   33.650124   75.379601
H   12.261770   23.904467   72.553970
H   29.433022   42.500122   70.658234
H   65.804100   92.786171   23.192703
H   74.650452   58.043602   97.132141
H   52.649162   46.732506   35.941090
H   93.804199   79.009109   16.596758
H   64.525589   10.228367    5.721111
H   82.104881   11.107909   73.347511
H   67.517601   31.752695   67.035751
H   77.314369   47.611198   48.906246
H   65.339783   37.165588   29.692453
H   34.635601    7.848423   35.109562
H   66.289474   47.100697   42.056175
H   92.368752   89.954300   32.681404
H   53.640873   51.886486   10.581335
H    5.265539   58.497269    4.068747
H   56.047916   43.727142   38.010258
H    0.477526   99.134865   63.854248
H   45.938461   12.210428   35.941116
H    1.000294   89.313316   93.516167
H   13.085943   44.485626   27.732649
H   91.129349   30.358017   73.025002
H    1.026459   72.514961   10.323608
H   73.155746   19.377815    2.327413
H   13.441864   91.415466   79.604935
H   39.956478   59.836788   75.155220
H   25.477459   93.103317   87.952499
H   58.417171   45.769535   74.141075
H   18.814003   54.011383   66.295677
H   74.393616    9.448450   54.590897
H   89.167587   93.073326   11.528095
H   14.887712   34.841644   21.074993
H    4.625113   46.268970   62.022324
H   74.937210   22.579437   87.238800
