100
TIME:    5.692, STEP:  5692
H   32.395180    0.036855   93.934830
H   43.275398   13.304063   37.004215
H   77.600952   83.409546   56.530735
H   82.431992   98.138947   28.164597
H   44.188324   28.996325   11.372160
H   39.754436   95.041527   42.444286
H   54.651363   45.689373   35.574894
H   72.506317   81.032028   85.573326
H   13.707710   39.030869   41.795975
H   19.293089   98.112053   30.582396
H   70.799057   95.272720   91.467308
H   38.593758    9.001125   87.766624
H   80.848618   17.383972   59.435966
H   73.247139   87.531532   90.403374
H   49.734566   61.595047   77.163971
H   72.660706   13.886016   60.555389
H   66.390327   58.451084   91.553558
H   22.787466   17.865219    2.212214
H   33.922817   17.138834   63.236927
H   39.164009   84.937050    3.870444
H   26.505363   89.560486    2.754074
H    8.077927   51.640198   34.551880
H    9.746734   48.329552   69.495438
H   90.189110    4.921114   84.336014
H   26.005188   34.755898   78.576576
H   20.598974   58.390945   55.166977
H   71.252167    5.866390   12.903677
H   52.266788   22.123009   54.921959
H   34.938286   65.514740   88.108795
H   19.249855   49.962822   35.885818
H   40.071480   32.468464   59.046013
H   25.153446   95.249603   72.327110
H   71.294914   52.028297   10.577268
H   18.602039   52.084862   31.955351
H   39.284317   28.648497   71.330292
H   67.433441   31.250977    1.530934
H   25.736202   96.081177   56.972637
H   28.731892   54.789440   24.110462
H    4.809802   57.397575   92.715523
H   27.070993   79.317650   85.869347
H   46.243454   51.487717   76.446754
H   20.523388   63.924461   70.544731
H   60.269367   97.633179   12.613584
H   15.890953    8.183004   37.269623
H   62.915813    7.316024   43.190533
H    4.651003   71.483017    6.285559
H   86.203415   34.388931   80.103416
H   56.543400   53.995728   20.766592
H   31.412811   61.037323   17.417320
H   45.256161   17.367231   85.558273
H   43.110752   20.117708   13.429902
H   81.753365   35.564190    0.391561
H   26.941059   55.012878   72.287621
H   44.876747   14.330953   82.989098
H   87.589134   57.425404   48.761875
H    0.685108    6.546291   98.857681
H   57.098694   25.306725   97.343910
H    2.217862   39.348793   66.942490
H   39.192375   79.269859   74.505943
H   83.405380   65.295334    1.716563
H   18.756268   13.868057   70.601921
H   96.897713   74.961746   37.809608
H   60.491512   18.871138   43.152924
H   33.898743   72.769867   72.603912
H   58.249657    6.233148   25.640474
H   51.677361   59.306877   82.738792
H   30.889137   45.148907   41.872574
H   87.180275   43.069309   38.313114
H   40.591183   40.795509    3.239327
H   45.703873   34.432945   89.747406
H   41.286613    8.116997   93.868050
H    4.636195   62.618561   73.364273
H   35.862793   36.756256   15.804008
H    4.908291   89.172325   64.954185
H   36.605526   36.755459   32.890762
H   60.223732   72.377617   12.930506
H   83.751884   33.201092   91.714027
H   99.400833   78.535118   28.787470
H   34.464863   36.799526   81.188866
H   20.383766   98.948952   30.550198
H   22.255518   88.168015   20.186518
H   68.411209   81.384277   10.804893
H   77.907036    2.309549   72.021561
H   41.750168   99.235519   43.540379
H   75.175835   92.846535   95.976929
H   20.288548   18.129974   37.053070
H   47.310539   89.498009   94.959961
H   47.572014   49.594509   36.560562
H   73.808212   77.250938   81.637581
H   63.090405   75.092453   27.693174
H   56.962761   80.782684   53.666424
H   99.449257   23.571978   41.981316
H   50.321594   98.306526   59.175678
H   97.377937   58.500195   10.601871
H   58.180519   39.875256   46.881626
H   64.057449   70.960846   73.449661
H   10.798403   94.333076    9.837121
H   27.290453   68.097031   64.612328
H   37.559204   61.386272   68.273323
H   92.763611   32.569172   49.412800
