100
TIME:    4.328, STEP:  4328
H   24.637043   25.121582   95.183609
H   80.946907   39.392136   51.000748
H   54.149086   85.277977   72.540779
H   82.203049   54.336967    2.929851
H   56.405548   19.665789   48.354263
H   60.910839   96.519249    7.362076
H   26.140270   53.585903   28.908243
H   79.714027   63.027828   10.810743
H   47.237434   70.173813   27.654406
H   56.567375   78.527031   77.170471
H   97.675018   40.388874   22.854958
H   90.652122   40.630791   84.857582
H   67.888504   99.866768   94.970215
H   40.783409   91.735756   86.602615
H   33.146614   83.433167   42.729633
H   27.505402   33.186455   73.779236
H   76.075081   68.233078   67.383263
H   93.622276   84.229912   49.496502
H   12.678429   59.920250   91.378723
H   75.912712   13.906214   11.002939
H    7.447052   25.351162   39.774086
H   77.309921   49.829468   50.709091
H   27.958992   59.422874    8.520362
H   16.923439   88.589233   85.638077
H   74.790192   42.927948   68.503090
H   26.816854   98.707153   83.432747
H   88.870628   62.569393   85.842690
H   67.356842   58.456116    9.830977
H    5.278836   41.761745   52.584999
H   66.947983   83.721489   27.451824
H   86.389381   10.156043   66.961357
H   39.029675   32.933655   98.599434
H   75.216530   51.825005   87.697372
H   60.969910   77.087402   89.420006
H   73.188675   31.756615   88.273666
H   48.863087   24.416676    5.821471
H   94.910751   46.035629   49.494740
H   85.107765   79.748055   27.856579
H   62.388500   87.118523   24.896696
H   55.543556    7.009997   78.552917
H   39.463150    4.689618   44.311504
H   42.645157    6.100113    6.134813
H   48.520435   89.453674   14.090170
H    2.987415   85.302826    3.904026
H   81.233330   61.128426   26.469622
H   22.250546   45.466785    0.741606
H   75.547165   60.209312   67.012047
H   56.470554   39.946960   36.370018
H   91.543076   74.004120   71.829987
H   16.648708   96.607979   80.958107
H   43.214420   51.803200   99.050552
H   15.465296   62.134182   89.936340
H   98.647499   47.103943   51.506542
H   76.464561   36.590248   22.798733
H   96.192749   37.883869   37.158634
H   98.981522    7.981087   45.291473
H   70.627121   64.664085   67.616249
H    3.783996   68.161430    2.075009
H   31.616774   21.637585   79.220741
H   73.414612   60.453686   40.511971
H   32.714722   77.299217   76.950417
H   45.305443   87.657669   99.524536
H   67.889503   11.947898   36.686516
H   40.235558   65.339630    9.632923
H    4.107253   15.173454   98.616447
H   35.469124   27.114998    2.088876
H   40.325333   97.993774   76.017868
H   81.401115   65.060196   73.106026
H   72.610245   38.803848   88.787720
H   18.072008   65.830078   92.619598
H   84.598442    0.922359   10.229790
H   17.104038    7.887049   73.498528
H   24.798056    4.227108   50.780235
H   34.933987   75.495934   45.998619
H   70.840218   34.809444   29.490194
H   27.974009   84.957237    4.710620
H   59.910164   51.424717   67.591774
H   35.317638   67.724464   53.460281
H   69.054604   40.806026   65.974571
H   87.271820   73.242729   48.060112
H   95.565781   74.056808   38.662853
H   66.061226   72.492691   24.873087
H   91.628609   79.500488   42.120678
H   47.909042   82.515205   68.120132
H   41.592087   78.166328   28.201248
H   51.684940   68.031227   42.332748
H   56.212059   88.672058   29.919371
H   25.621340   58.784065   50.733620
H   45.502548   53.195854   92.793343
H   83.685410   31.210060   78.931946
H    1.142171    7.131814   24.861246
H   98.524597   20.988617   15.994814
H   62.886696   57.379807   53.695415
H   65.546371   75.758804   18.633837
H   81.761635   62.054756   15.539958
H   51.396652   24.823090   43.902214
H   19.066143   16.055431   88.281479
H   22.752539   53.088013   86.780037
H    2.537303   55.506603   82.521629
H    8.040560   67.567268   80.810471
