200
TIME:    0.916, STEP:   916
H   30.243071   60.231495   26.898758
H   33.989075   42.746986   17.340607
H    3.969286   98.726562   78.644829
H   40.629013   84.875008   26.822464
H    8.032878    0.862385   43.939247
H   67.627136   34.467293   45.540825
H   13.153258   54.824486   62.735867
H   18.037409   18.076096    1.077523
H   14.880899   77.371796   31.228344
H   87.064713   65.428520   69.408333
H   35.755688    9.034664   14.323906
H   33.573151   60.066254   44.952553
H   27.765759    9.443850   33.585747
H   72.452797   56.059017   74.840385
H   86.984879   77.148476   41.315308
H    9.596481   98.113632   39.740257
H   16.013992   39.377487   82.617783
H   20.510475   15.665189   31.485464
H   87.517151    5.228675   52.435173
H   92.206917   70.421227   11.265496
H   66.197777   10.503258   94.870178
H   74.979530   74.653297   44.524307
H   74.762138   57.626389   32.915962
H   22.926659   94.222359   89.466362
H   32.628799   39.891655   21.288860
H   18.101507   92.337143   84.629860
H   11.987029   72.360909   76.261734
H   10.024819   98.015877    2.510006
H   39.540409   35.982368   34.380005
H   62.501595   38.874004   75.241928
H   12.478920   79.691566   17.021297
H   19.633221   79.350082   10.246798
H   10.789589   23.531206   81.436264
H   74.053444   64.315437   50.106064
H   15.547302   61.868347   29.076357
H   10.972561   34.510025   87.220421
H    5.666656   59.838516   91.029884
H   99.477478   62.241718   84.773804
H   28.051361   22.194550   59.457924
H   83.599808   36.908611   37.290131
H   80.705452   73.644791   23.962181
H   46.986649   28.931299   19.785843
H   64.530228   72.252785   75.429695
H   35.775284   96.066353   42.924686
H   51.874557   96.919876   68.758751
H   31.546774   96.245827   50.039852
H   92.713104   93.092712   10.999831
H   73.658333   65.540291   23.345657
H   13.223685    3.099222   61.653713
H   37.926281   20.852148   77.113922
H   62.127243   61.939873    1.078530
H   95.297478   47.333233   78.075478
H   70.410606   75.090691   16.760643
H   12.345423   96.449265   91.713814
H   48.585251   61.350906   68.910835
H   96.640312   55.695297    0.784158
H    3.501309   19.303566   42.403187
H   74.794174   74.294205   93.101555
H   13.916887   87.536179   23.476017
H   27.468418   92.193275   54.497681
H   48.230171    2.187486   22.485348
H    2.086129   18.026278   54.248787
H   90.070938   39.209625   62.078365
H   40.505547   66.116783   18.760750
H   82.215164   86.156769   45.572987
H   12.221694   42.823723   45.014297
H   60.924171    8.902549   99.801552
H   93.555840   92.986855    0.655247
H   40.567444   14.988418   53.423561
H   41.345654   53.412228   50.946491
H   58.168610   88.284119   91.363434
H   13.141666    6.053382   40.032848
H   98.948868   37.349926   76.859619
H   29.888815   94.105858   80.253090
H   87.376358   11.814445   35.827225
H   70.400459   95.211250   58.460098
H   92.570343   55.116074   62.583241
H    1.517316   18.279531   24.851753
H   16.674219   59.805321   19.952284
H   58.088589   86.896835   62.202789
H   72.059105   18.676962   91.097443
H   56.361309   56.432484   66.959160
H    8.362311   21.081453   70.500816
H    2.629826   83.964516   15.883687
H   14.835724    6.472314   38.624771
H   43.711670   62.122162   13.710768
H   66.152596    4.192743    3.321132
H   69.709846   93.384857   36.939186
H   86.377151   73.702530   79.605225
H   20.058250   16.348330   47.428432
H   12.905897   40.728474   77.747681
H   79.346657   94.466553   13.118046
H   79.373917    9.238068   76.476990
H   29.714735   70.147118   87.666405
H   42.253380   47.782005   96.094414
H   41.277321   42.823265   97.277596
H   88.475578   90.896690   27.442863
H   97.281731   40.488102   56.854156
H   21.700218   63.006271   55.276894
H   78.958305    8.911451   27.415445
H   40.027004   99.117065    0.771748
H   15.708615   86.883835   62.135750
H   37.192245   12.464740   39.948956
H   54.358055   69.187592   17.007839
H   24.442629   18.588989   47.004208
H   14.185991   93.676346   12.241221
H   88.711067   36.944828   51.253002
H   60.767536   60.229347   92.602303
H   89.976097   31.556618   31.820637
H   26.082262   18.635111    8.845781
H   56.088600   90.192421    1.271466
H   13.136814   80.344421   98.211266
H   45.353058   88.119171   79.231422
H   60.934258    4.823694   57.522690
H   41.291481   10.117789    3.069861
H   86.450874   86.022835    9.430779
H    4.781070   17.961599   92.060715
H   37.341396   60.269901   20.465935
H   44.534309   83.093521   50.130634
H   88.622322   60.166805   74.561295
H   47.609993   26.251591   65.368492
H   89.122070   11.466084   68.072266
H   48.534004   93.311722   44.083462
H   94.117920   42.993263   88.261833
H   56.688774   92.215294   70.455498
H   72.487671   80.848297   12.479469
H   78.583595   52.346298   44.947647
H   60.642204   92.871849   40.711895
H    0.786747   28.014050   69.484901
H    0.510603   20.945267   78.018242
H   75.897133   61.048737   29.245113
H   55.752769   92.756088   25.268726
H   90.230354   15.483316    2.404481
H   67.773499   30.334820   58.026684
H   37.820896   89.146942   25.353439
H   44.353348    0.759267   73.722527
H   70.011887   88.287117   88.991158
H   96.984398   43.114002   72.517250
H   63.982727   53.787277   71.390205
H   43.814125   76.669518   76.673981
H   84.084488   43.189194   36.746643
H   26.118362   61.550453   62.005543
H   33.274498   69.202309   76.583069
H   26.737312    2.057573   89.326454
H   72.077118   47.347549   71.173462
H   70.709587   73.621750   97.469872
H   60.719414   93.817406   42.441608
H   24.193855   48.255394   64.946556
H   83.257050   36.568092   91.224274
H   31.010986   96.055138   64.699539
H   52.393967   72.790482   46.240879
H   62.243713   88.404137   26.968018
H    7.579688    6.561825   79.734726
H   27.779457   16.659472   59.246738
H   40.418491   71.732742   72.982262
H   83.569817   45.205082   74.859802
H   66.387314   81.157211   88.760178
H   55.657013   25.813736   25.561436
H   81.442314   99.186996   77.534645
H   56.100773   29.361540    4.182821
H   60.596191   56.945854   65.442101
H   11.864214   19.553089   29.687668
H   94.317802    5.096433   36.950970
H   36.088226   40.038502   42.277634
H   52.481560   45.026215   16.466677
H   23.560555   42.930065   58.606495
H   63.259422   86.633125   59.388004
H   24.222744   61.689140   75.966202
H    3.259095   25.971838   35.260696
H   57.322365    5.358331   82.790924
H   66.450684   13.673026   35.919342
H   22.809404   40.338112   59.533997
H   50.734238   48.405979   71.403275
H   62.901436   58.369881   89.923141
H   40.018555   89.951279   67.445930
H   21.774162   51.317741   23.949326
H   28.473209   74.039642   15.185013
H    7.721310    9.845543   73.524124
H   58.312878    5.664327   61.229343
H   54.144493   61.706505   95.921165
H   69.075989    9.414636   26.002399
H   32.862648   30.931240   94.294662
H   34.508694   89.453064   19.460068
H   66.202248   26.471172    2.059561
H   94.264877   59.014160   75.611801
H   13.412098   41.927933   87.337502
H   54.890686   92.945717   14.243711
H   57.944458   95.858833   49.180931
H   87.041054   64.187782   74.269302
H   61.906403   54.596035   74.243790
H   80.112488    8.658974   74.474068
H   42.111214    3.300252   16.013990
H   19.116020   33.606438   73.293068
H   23.293909   90.509857   46.936741
H   61.696045   24.061264   19.605019
H   76.978531   12.042217   20.304844
H   13.954726    3.992595   26.283430
H    9.263174   83.970970   27.902122
H    2.898716   13.503397   47.783974
H    0.957082   12.089981   88.357040
