100
TIME:    0.864, STEP:   864
H   58.893471   42.788063   98.354996
H   77.236488   51.590748   32.501034
H   94.609161   36.063183   13.195091
H   81.621628   97.052330   92.804192
H   87.432281   42.010933   42.278099
H   14.618507    0.273303   64.311333
H    7.688938   19.678534   58.018696
H   51.977600   63.347820   28.864334
H   32.389229    3.223246   45.701767
H   51.228798   28.789970   41.524147
H   19.887848    1.007612   56.523933
H   22.863384   66.998573   31.428034
H   88.303314    9.434225   39.254333
H   12.301493    2.413357   22.990635
H   91.010475   92.848724    9.240013
H   66.784607   36.165424   61.320786
H   54.602226   39.134689   52.020149
H   19.607407   52.684387   69.593063
H   58.718155   14.598178    8.882555
H   69.261696   87.417236   75.131859
H   13.005554   70.204132   33.793869
H   45.193836   45.240318   45.687939
H   74.208382   87.595360    7.629343
H   38.766586   47.044071   42.906967
H   98.683098   17.652805   42.937363
H   42.697315    1.865928    8.190801
H   87.575195    6.560806   17.111288
H   59.638268   96.767792   95.332169
H   29.958023   27.480600   16.330643
H   34.122173   69.455856   52.073910
H   50.089054   99.522163   41.041985
H   20.310492   28.641014   19.279243
H   31.216415    5.268303   75.632896
H   14.608176   94.542366   35.351585
H   59.295753   93.608253   77.339600
H   47.676666   52.356762   17.671431
H   62.666935   72.894386   76.545174
H   28.280289   43.140530   83.411385
H   11.877468   62.064140   59.317421
H   81.813972   31.298182    6.011396
H   76.196060   85.827309   62.699574
H   53.969780   50.635765   43.392231
H   18.682974   68.681091   63.879509
H   24.186853   27.250799   65.210457
H   81.709526   97.802994   30.042665
H   66.916771   79.446342   86.706474
H   45.203114   72.349777   35.006050
H   56.285557    4.279130   22.037321
H   90.286613   60.891693   10.008027
H   44.010632   43.900028   23.235786
H   43.478703   86.229668   62.526752
H   47.121239   83.566467   17.341393
H   26.801912   27.018494   52.690994
H   56.681973   93.106606   69.942581
H   71.977554   34.247456    7.737719
H   94.647293   11.623922   63.214203
H   51.024605   64.616615   38.161110
H   61.723328   95.293236   91.300125
H   58.417725   75.274475   45.153965
H    2.004565   94.197083   39.035362
H   14.202234   38.390907   47.030869
H   68.246094   19.903366   56.263130
H   32.837181   48.235481   74.284279
H    2.368080   46.494431    3.680853
H   66.617790   91.837700   76.024391
H   48.268379   99.321175   97.272285
H   18.248331   78.232330    8.775826
H   20.683571   66.950180    7.506797
H   99.962486   87.704803    6.042948
H   47.888206   91.599754   99.913788
H   94.595589   36.615452   51.785099
H    2.726875   22.851204   19.879232
H   50.657639   75.568611   39.594715
H   11.174048   94.703674   51.858513
H    3.829615   29.873068   66.894951
H   46.085613   62.948387   37.793453
H   45.400806   51.660271    6.322277
H   72.572617   94.225716   62.157230
H    2.964977   50.971531   27.322365
H   57.153366   61.900589   46.486755
H   27.789700   38.220135   31.627308
H    6.149292   49.870132   14.530609
H   72.463524   21.677896   12.191517
H    9.604507   86.095192   84.513222
H   10.259523   94.839600   63.997353
H   31.406628   40.790936    1.781919
H   24.859335   40.533089   64.741943
H   69.863861   36.119911   86.759773
H   73.612984   46.065666   21.131401
H   89.947464   73.732590   55.100231
H   59.380985   20.085703   51.707836
H   42.214207   60.487053   49.984917
H   40.719353   53.517914   85.756035
H   30.736643   65.642174   85.073448
H   41.654636   72.338379   35.939445
H   65.284439   61.612541   22.822426
H   94.022415   17.263380   87.499451
H   10.037467   23.594116   42.212067
H   67.553093   40.574657   72.677559
H   92.898758   56.512112   14.470266
