100
TIME:    1.374, STEP:  1374
H   24.404154   96.018600   97.888077
H   63.049934   79.241875   64.671745
H    3.372729   72.755226    7.206791
H   81.707230   76.040977   64.851311
H   82.864258   82.889687   28.449516
H    6.709988   99.719536   14.817247
H   80.958534   54.117695   97.901360
H   11.892609    7.471051   82.038078
H   19.852455   54.188919   13.598241
H   37.291267   36.111961   61.496605
H   72.448898   21.528126    7.399195
H    3.396763   92.562386   95.126686
H   55.861206   78.578392   88.564537
H   87.049431    0.841000   61.803272
H   97.212715   47.294430   84.725693
H   46.279083   91.555962   18.986801
H   13.599777   72.861801   98.455238
H   30.506073   27.883209   51.912399
H   66.660973   35.994736   35.749851
H   55.498489   76.635117    9.880899
H   82.741531   19.431061   19.951920
H   94.095818   45.913460    2.260829
H   67.399147   83.447563   93.037613
H   91.382011   53.160709    5.028411
H   80.442131   77.203743   46.699951
H   40.358829   86.668045   60.386818
H   43.597404   85.361893   27.231756
H   16.607796   20.573376   12.189170
H   41.047348   73.752075   92.223228
H   53.678295   56.833481   92.618034
H   70.151009   45.258148    0.686066
H   52.512333   14.551635   72.066017
H   67.141556   67.953911   21.577726
H   36.156548   47.803780   13.867077
H   46.618904   55.056313    8.396454
H   92.018402   92.418411   15.916547
H   11.583837   54.217628   16.730963
H    7.202383   33.806042   19.401287
H   88.950363   51.177147   10.435010
H   33.778244   83.554115   46.137928
H   41.343094    3.328536   74.715378
H    8.133904   73.524849   67.352951
H   23.075903   71.739410    0.719355
H   91.620583   35.798225   15.076812
H   37.471291   77.678787   73.686966
H   60.361004   89.123726   88.750648
H   50.588245   99.859085   39.363960
H   56.312794    9.530024   53.593258
H    5.195661   18.654984   89.664536
H   54.706966   51.662556   87.565636
H   43.439793   36.993065   67.904099
H   71.906853   36.241947   83.861374
H   37.381516   29.975647   23.069466
H   44.872814   84.787666   92.448074
H   31.375824   78.957535   12.065474
H   95.285416   11.087938   45.852600
H   83.357178   49.900887   86.666206
H   23.746830   47.130547   78.164139
H   98.642250   96.822784    6.000214
H   68.347687   33.398235   24.529747
H   46.373974   14.675261    7.268616
H   50.145203   15.156183   33.185661
H   67.431595   13.456764   39.296486
H   37.389313   49.268707   89.835670
H   86.858727   51.105572   23.518793
H   16.938118   73.967476   27.426954
H   77.329819   95.866302   33.399853
H   85.454094   96.117050   31.887747
H   25.381836   51.059448   74.058418
H   58.218788   17.250937   98.839874
H   78.401283    1.913389   45.668461
H   60.673542    5.924812   57.220444
H   17.404373   50.341534   26.517094
H   99.949455   62.431602   21.547691
H   28.418335   30.598738    5.556053
H   58.143795   95.632835    3.477479
H   91.705162    7.457535   15.346458
H   96.533340   60.879555   90.320480
H   27.411974   49.477390   33.009392
H   32.142075   34.122803    2.549929
H   37.770092   43.496319   62.109310
H   44.415874   53.200821   71.884354
H    4.735053   30.189440   60.766575
H   44.689396   29.736551   37.930275
H   85.426697   62.941124   14.558447
H   19.667507   59.526058   37.198097
H   58.921074    3.451939   89.060638
H   78.073853   95.289001   81.460243
H   84.196480   17.670195   16.958313
H   44.858604   52.746674   73.333412
H   80.252266   47.623089   62.478100
H   79.949043   98.844444   59.700722
H   73.442589   68.799057   25.211535
H   80.030342   96.575554   19.460823
H   32.837650   26.654961   47.659111
H    7.408394   41.472771   96.479858
H   53.540543   46.531414   58.169159
H   11.910007   27.936462   34.052658
H   43.257744   42.773067   29.957577
H   24.571457   43.411144   65.350044
