100
TIME:    4.095, STEP:  4095
H   40.393707   46.488922   95.396927
H   87.381996   26.765497   36.308479
H   50.144043   68.514748   75.274803
H   82.163940   63.936272   15.701735
H   58.492508    0.989813   54.672028
H   64.524544   96.771675   84.287773
H   38.351368   37.851933   10.687341
H   98.027367   42.871067   32.204639
H   52.965019   92.575745   42.321522
H   62.934914   75.181496   68.047577
H   19.348099   31.013554   45.298138
H   99.543922   28.951639    1.442979
H   82.756760   13.957287   18.122391
H   52.320351   92.453926   68.872345
H   30.312511    4.245741   53.930599
H   36.874039   53.565422   93.120056
H   94.811501   52.822155   46.172356
H   88.644859   95.560646   57.575916
H    9.049358   50.144958   79.102280
H   82.191368   18.854300   95.139305
H   21.273605   48.547703   46.097183
H   54.971985   49.520157   70.551208
H   31.069878   61.317848   15.186990
H   38.571648   85.794769    2.941962
H   83.123810   61.406609   66.782326
H   27.879000    5.595050    5.343792
H    8.962030   72.254288   81.220802
H   87.017639   47.580460    2.128868
H    0.212172   20.622421   63.599312
H   58.013519   89.488182    8.929611
H   77.220268   89.262199   85.395576
H   24.317854   39.370522   20.169365
H   58.804714   68.872658   66.706894
H   51.125290   98.440521   99.236183
H   78.980255   49.369560   74.084473
H   28.608557    6.167114    6.554526
H   72.562149   54.568344   31.135183
H   94.739067   84.010857   11.414980
H   72.222748   92.195488   47.476112
H   77.489723   28.822823   60.221432
H   55.387329   96.694702   38.822124
H   63.585861   95.643082   95.188385
H   46.513470   88.056442   97.260399
H   17.865515   81.399109   81.121826
H    1.445133   70.321869    6.530624
H   25.256550   41.022663   99.794746
H   73.726852   47.538231   64.775764
H   56.458111   37.547134   21.953285
H   84.731125   93.302277   81.123535
H   11.761950   93.063347   97.255592
H   43.232197   74.297569   96.593842
H    4.142561   83.754105    5.231787
H   93.815849   45.752930   65.039650
H   81.861504   40.392639   12.517699
H   14.744034   17.464014   35.176556
H   98.689987    8.226385   53.223343
H   55.855839   71.387154   45.456078
H   21.133537   90.165169    8.076832
H   13.241217   11.792267   97.107445
H   88.791275   42.543873   47.139046
H   18.016275   88.135765   95.117989
H   53.575066   89.826401   10.067405
H   52.070644   27.847965   52.664024
H   24.235373   64.070389   15.959576
H   94.859444   33.782856   76.918465
H   49.782753   38.698158   88.312164
H   59.019089   89.937469   64.768906
H   97.495949   51.734940   61.967281
H   60.998184   55.545746    3.400331
H   13.351461   54.110313   93.110229
H   91.997017   16.775902   13.025143
H   36.315781   15.620263   56.439419
H   39.990265   15.751606   56.754913
H   40.064281   90.239754   59.842949
H   59.606174   34.477024   11.826587
H   22.465075   70.024986   20.388321
H   38.754364   71.619919   63.471180
H   24.370876   82.958916   40.591881
H   57.881279   41.490421   63.375221
H   98.698547   85.931587   68.133324
H   91.007889   71.646317   24.737215
H   48.578255   70.971024   44.356445
H   76.888344   75.610992   19.928509
H   31.879976   62.577095   89.402145
H   52.937042   92.739494   50.788055
H   57.048107   59.472687   26.152588
H   40.650520    5.613075   18.809065
H   21.871389   77.438713   53.156555
H   40.667343   66.169136   94.698982
H    4.285066   40.796921   70.601883
H   91.606842   94.550209   19.940714
H   81.284958    3.466647   11.554960
H   47.950890   50.388313   35.677166
H   43.025455   61.626198    2.923936
H   85.789787   82.924522   10.186124
H   32.151825   34.023506   55.936897
H   37.560181    2.684399    1.681454
H   21.897490   51.104156   90.509544
H   13.636833   54.502232    2.036842
H   93.567802   73.547279    3.255258
