100
TIME:    2.375, STEP:  2375
H   56.710602    4.221778   96.971634
H   35.205345   33.513168   27.814199
H   20.578917   44.770691   95.457298
H   81.875244   34.801048    9.980736
H   73.898392   63.124241    1.309505
H   91.189583   98.635078   13.949764
H   28.497093   21.708580   76.180946
H   33.215981   94.070099   90.129143
H   95.245903   57.946838   50.589931
H    9.938528   50.484840    0.690418
H   79.338318   61.805790   10.977808
H   65.195724   42.737030   23.873690
H   92.188850   18.016792   89.073326
H   37.485146   97.755440   37.978954
H    9.388592   57.882568   36.608093
H    6.030389    4.002858   35.896255
H   33.120987   39.059547   89.591415
H   51.897377   79.204308   17.208134
H   82.255775   77.988190   88.487045
H   28.532158   55.376743   78.033699
H   23.340759   19.778347   92.782211
H   90.073914   47.236832   17.025055
H   54.034355   75.306496   64.398773
H   98.378250   65.166107   30.685768
H   44.639763   97.815399   54.084953
H   35.768978   56.839664   66.562218
H   57.280708   43.751667   47.095654
H   32.146606   67.296684   45.277256
H   62.812866   64.570534   44.904228
H   92.061974   32.058975   72.194359
H    9.528611   35.025066   21.478477
H   15.715958   86.893623   79.398430
H   37.649334   94.716423   11.755712
H   78.450386   56.068161   71.696198
H   21.735905   79.388275   69.348213
H   79.051315   71.053947   12.475560
H    7.592763   17.558409   95.606140
H   65.825996   15.484821   90.038933
H   44.824257   29.668318   14.157160
H   39.494991   89.843590   24.893866
H   72.935249   37.675289   98.298508
H   18.169739   18.448448   14.381037
H   31.698103   77.742111   73.021355
H   27.698950   52.576767   12.949248
H   50.641415   38.185093   59.346291
H   47.446796    8.216267   92.813545
H   60.285732   53.998505   48.255081
H   56.366253   19.836187   15.529427
H   34.453194   35.751713   49.735443
H   75.696892   66.896965   17.554470
H   43.363422   40.352913   78.458466
H   20.553087   43.357021   18.147091
H   58.146584   35.779785   64.934898
H   21.694447   68.459709   36.617889
H   51.687279   66.711197   20.558729
H   96.537888   10.035938   11.776199
H   46.815693   21.017662   81.869652
H   49.209320   52.598297   52.381546
H   77.587639   39.118832   29.152853
H    2.294240   10.337675   96.059944
H    9.517185   68.121773   29.222179
H   14.619637    5.837105   87.893021
H   35.327335   45.196404   70.623947
H    6.125891   54.713905   62.662762
H   26.589222   71.157562   16.739958
H   55.445198   24.204628   86.613884
H   97.017372   30.473261   81.726944
H   16.308479   53.366211   79.741333
H   75.272789   79.133980   11.275809
H   78.500549   67.600166   96.732056
H   46.615990   33.805107   33.660892
H   78.137085   72.703415   30.507700
H   52.137436    0.830708    0.849115
H   77.924278   99.084167   62.055244
H   76.678978   32.023106   81.438828
H   81.805183   59.789162   36.122356
H   82.589844   20.697351   33.053089
H   43.562145   95.424934   45.603107
H   75.401566   46.542606   44.176918
H   83.050819   79.607162   16.312691
H   57.359058   53.852123   21.936832
H   19.521935   59.738113   88.181129
H   68.068832   46.898834   56.106876
H   13.548175   15.393404   46.499817
H   36.687210    0.325617   17.522690
H   96.628052   96.291618    6.710407
H   25.775610   30.671082   36.792557
H   94.187973   15.146093   71.047768
H    4.969873   61.935890    8.769291
H   56.357296   11.560204    9.119210
H   21.217438    1.675496   83.617386
H   54.016003   74.124321   78.776283
H   37.668079   98.797287    2.651357
H   76.780952   57.295185   86.952507
H   15.528519   36.991806   70.661827
H   90.086823    1.945761   44.777206
H   74.086105    3.977004    0.600856
H   15.585324   36.459381   18.034489
H   95.574089   47.087986   46.107330
H   86.736832   17.699409   68.939240
