100
TIME:    4.460, STEP:  4460
H   15.710789   13.016542   95.062759
H   77.301277   46.545425   59.324265
H   56.418037   94.774742   70.991890
H   82.225204   48.898735   95.694710
H   55.223236   30.246172   44.775101
H   58.863445   96.376244   20.434645
H   19.222134   62.499569   39.230816
H   69.339088   74.448029   98.690865
H   43.992622   57.482590   19.345491
H   52.960014   80.422356   82.338806
H   85.396698   45.700214   10.140068
H   85.614708   47.247307   75.461525
H   59.465286   91.884651   81.854004
H   34.247459   91.328896   96.647232
H   34.751900   71.642273   36.384022
H   22.197586   21.641289   62.822205
H   65.460457   76.964462   79.399742
H   96.443336   77.808556   44.919872
H   14.734383   65.457916   98.333618
H   72.355705   11.103006   19.990122
H   99.614006   12.209774   36.191902
H   89.964890   50.004700   39.468063
H   26.196602   58.349327    4.743560
H    4.659184   90.172363   75.835159
H   70.069000   32.459351   69.477943
H   26.215124   94.805725   71.019478
H   77.488609   57.081814   88.461098
H   56.219242   64.617432   14.194404
H    8.149266   53.737942   46.345131
H   72.009567   80.454521   37.945381
H   91.583900   21.992634   56.517937
H   47.364269   29.287018   86.379524
H   84.513893   42.167107   99.588974
H   66.547119   64.990356   83.858910
H   69.907608   21.778465   96.312180
H   60.337757   34.755360    5.406177
H    7.571390   41.201645   59.895863
H   79.651405   77.333076   37.171062
H   56.816326   84.242302   12.105268
H   43.111153   94.652702   88.937927
H   30.441814    9.218549   47.421368
H   30.781754   12.024554   12.336123
H   49.657429   90.245239   23.624651
H   94.558304   87.514374   16.810263
H   69.782829   55.920815   37.765278
H   20.547573   47.984486    1.278214
H   76.578415   67.387779   68.278954
H   56.477604   41.306519   44.537437
H   95.402206   63.071346   66.564972
H   19.417171   98.616096   71.725197
H   43.204350   39.059608    0.442261
H   21.879892   49.885067   81.271423
H    1.385152   47.869324   43.839642
H   73.407066   34.436104   28.623180
H   85.682861   49.452198   38.281528
H   99.146683    7.842236   40.797882
H   78.995956   60.855309   80.170509
H   93.954971   55.695793   98.674911
H   42.026962   27.215298   69.087502
H   64.703369   70.599365   36.757576
H   41.041260   71.160057   66.658058
H   40.620506   86.429031   93.552551
H   76.850502    2.940322   27.634880
H   49.300285   66.058685    6.048725
H    9.346681    4.630796   10.909312
H   27.360115   20.552864    9.893495
H   29.734770    2.557503   82.390671
H   72.283012   72.609268   79.416389
H   79.188492   29.319168   80.509521
H   20.746309   72.468750   92.341644
H   80.406975   91.941193    8.646156
H    6.220226    3.506125   83.162468
H   16.191046   97.697853   47.395439
H   32.027554   67.143211   38.155479
H   77.204964   34.997768   39.496670
H   31.094950   93.416710   95.828537
H   71.894760   39.983280   69.926186
H   41.519238   59.093212   60.750534
H   75.385109   40.418301   67.446922
H   80.798309   66.054192   36.688164
H   98.147934   75.422409   46.552319
H   75.964851   73.354752   13.834986
H   99.978294   81.706238   54.692524
H   56.989883   93.810616   56.064034
H   35.164902   69.910286   15.405301
H   48.646580   72.879311   51.499191
H   65.028038   79.074585   36.213623
H   27.745775   48.215767   49.360970
H   48.241806   45.846184   91.713753
H   72.015366   25.778877   83.651123
H    6.544269   14.259407   27.648844
H    8.291984   30.915405   18.509996
H   71.348183   61.340652   63.903179
H   78.304062   83.765091   27.533907
H   79.479591   50.230629   18.572819
H   62.299301   19.610947   37.084282
H    8.588807   23.630688   80.690109
H   23.236944   54.211914   84.667183
H   96.249146   56.075603   71.465904
H   16.239443   64.179451   68.095078
