100
TIME:    6.451, STEP:  6451
H   81.067703   30.432585   93.239944
H   22.314365   54.435383   84.861916
H   90.653214   38.014275   47.618832
H   82.559387   66.869110   86.561646
H   37.390030   89.833527   90.792831
H   27.981922   94.219246   17.610062
H   14.873767   96.939232   94.929680
H   12.850418   46.694859   15.883918
H   95.049980   66.056030   94.019005
H   98.559639    9.010868   60.300480
H    0.198731   25.812323   18.356873
H    9.622833   47.045826   33.739296
H   32.415115   71.485695   84.017754
H   35.665428   85.192085   48.164722
H   58.959846   93.797722   40.673664
H   42.143661   47.501015   97.551270
H    5.356018    8.655141   60.648323
H   39.018826   80.933487   75.899452
H   45.741657   48.981949    3.227027
H   18.717010   68.815712   55.546684
H   81.465240   13.999462   82.151131
H   80.843994   52.647781   69.916046
H   99.612053   42.156654   47.780273
H   19.666702   14.000948   27.965742
H   98.860298   74.563904   84.181984
H   17.139025   35.951942   83.793938
H    5.801567   74.317886   27.965017
H   88.225174   57.550575   80.009415
H   51.441811   34.376842   52.229553
H   48.352695   31.177757   96.225021
H   69.944603    0.529767   98.996422
H   73.077362   74.275650    2.062691
H   24.756523   96.496956   78.953979
H   50.672203   82.527115   99.981796
H   20.408737   71.238838   17.534487
H   33.411663   90.698448   99.144386
H   98.534218   68.285767   16.778723
H   97.361900   40.897526   77.670219
H   72.774872   40.859306   19.162424
H   55.580685    8.261900   45.586025
H   94.371948   77.531548   94.328468
H   56.558853   66.900742    9.295350
H   66.804596    2.185469   67.435539
H   67.424225   20.922567   11.480674
H   97.079567   77.367569    8.139506
H   94.854729   85.959793    9.369112
H   92.133102   75.665115   87.388130
H   56.583935   61.813187   67.729248
H   53.597023   98.178932   87.141098
H   61.179981   28.921007   32.477631
H   43.058636   46.841324   21.430233
H   18.641701   65.135742   50.568245
H   42.686001   59.413818   28.204279
H   27.301941    1.946071   16.481155
H   27.157047   23.939468   55.218517
H    1.630472    5.747897   73.019531
H    5.218191    3.405435   69.531212
H   45.700592   67.670158   47.393051
H   99.054337   11.340348   16.239815
H   33.319283   23.633213   80.128807
H   66.634666   78.569595   11.425894
H   69.959328   67.897079    3.465344
H   12.018408   67.078407   91.106018
H   86.018478   76.904434   51.997189
H   88.374039   45.613857   96.322151
H    5.052235   21.574608   27.617308
H   69.992630   71.388245   78.516190
H   34.751183   86.476479   74.597702
H   78.419685   86.258621   55.638355
H   61.078209   72.609795   88.149170
H   17.183895   56.475220   84.765053
H   42.052525   37.428970   28.933464
H   86.373596   99.214966   96.342590
H   88.197914   41.135349   19.856913
H   73.198479   37.838322   90.427261
H   78.164574   21.020950   61.857697
H   52.671474   67.451195    5.151014
H   35.060040   28.904814   70.705498
H   70.860573   34.570103   89.654884
H   83.162186   57.603279   65.161766
H   37.108688   96.020218   65.550186
H   25.375181   86.306519   47.313465
H   25.915031   15.001615   44.304451
H   93.968330   64.185204   74.217369
H   38.219521   45.372017   22.400162
H    2.818189   46.010803   89.760117
H   98.002419   34.312538   31.152029
H   59.778831   88.858337   28.690987
H   89.558945   34.990334   75.429939
H   95.983261   43.865208   54.823112
H   88.024132   21.767689   69.695114
H   55.607571   80.656372   56.440720
H   98.975143   21.080906   17.870310
H   70.730629    4.547808   61.780014
H   45.058769   71.888992   64.323242
H   26.747772   40.988129   34.246552
H   50.552116   37.889206   66.186417
H   25.825403    5.655064   49.376740
H    1.402461   64.659187    4.697502
H   39.907139   13.092201   76.295631
