100
TIME:    8.596, STEP:  8596
H   36.009270   33.726768   91.276138
H   63.075760   70.669907   20.109901
H   27.528261   92.335037   22.436127
H   82.919418   78.494865   68.987984
H   18.171572   61.764561   32.631439
H   94.716309   91.895409   30.036339
H    2.454543   41.781509   62.671558
H   44.257645   32.265110   18.937164
H   42.321785   59.822327   59.000813
H   39.972755   39.810825   44.288887
H    0.676055   12.121177   11.739637
H   27.755707   54.563610   81.056618
H   95.611160   41.682060   70.859695
H   29.458319   78.580605   11.398846
H   85.013008    2.195734   37.518883
H   55.896942   59.891380   19.497746
H   32.867928   50.528492   55.916145
H   84.882614   76.557671    1.547702
H   79.150146   38.966640   16.233112
H   60.921818   23.268476    1.588278
H   54.177895    0.457587   23.934408
H   86.487236   55.495300   87.249496
H   70.973213   24.714930   86.408127
H   20.365210   39.661346   68.661331
H   22.141991    4.453667    0.023343
H    7.076118   72.693405   81.960541
H   20.835890   85.151688   70.528000
H    7.236628   57.671925   50.911797
H   98.082207   28.988100   50.834129
H   30.601143   78.088303   66.745941
H   54.363712   92.875893   29.290916
H    8.514009   15.014896    3.489297
H   75.848160   39.557686   72.192520
H   41.304031   85.950653    9.616011
H   67.025002    8.832146   48.040844
H   19.873049   58.707489   92.401985
H    4.267635   89.730232   85.796593
H    8.704447    1.639204   29.037109
H   82.232414   94.126305   11.296249
H   53.545753    7.454196   14.349572
H   47.775497   51.130363   44.862514
H   75.789795   75.312378   18.802269
H   85.264374   15.052635   22.371578
H   30.460499   56.929932   21.206165
H   11.016823   92.742668   91.693779
H   67.165062   26.867371   18.083502
H    8.896688   92.317329    7.980089
H   56.712276   83.906006    0.449338
H   16.301178   20.529770    1.574919
H    6.213877   61.570057   82.500603
H   42.911350   39.755501   44.042908
H   22.894621   66.094849    9.762225
H   87.174049   71.851257    3.629766
H   77.626648   66.956894   11.134318
H   56.368721   11.916879   73.457062
H    4.302067    3.491566   99.998657
H   41.200516   41.512642   73.538551
H   85.980164   65.101112   92.141014
H   68.224785    1.979518   51.571518
H   91.771919   88.505020   19.119896
H    1.942432   78.816772   44.183743
H   93.829063   47.931717    6.412148
H   57.644123   20.707407   44.016937
H   33.311413   88.589081   93.756577
H   73.514450   74.296417   96.076584
H   73.283089   14.940585   54.446964
H   97.894852   45.547466   82.076645
H   86.581131    9.151441   77.141113
H   85.325500   32.132591   21.106110
H    4.605141   80.398697   83.611633
H   49.067661   10.528029   59.039192
H   65.406525   66.179100   86.129196
H   46.516190   93.118156   41.349148
H   40.976360    5.379526   92.408974
H   76.549316   40.972370   53.056110
H   28.871775   58.497017   17.527956
H   47.483231   81.794922   43.194138
H   35.832325   88.653740   89.171082
H   73.721626   28.269558   13.587595
H   77.969627   40.754997   80.368187
H   79.096260   18.211924   93.754120
H   86.333054    0.217033   67.861702
H   61.591682   50.873692   48.583233
H   41.540199   47.737770   78.305168
H   33.777054   11.189974   14.467724
H   53.456875   24.798477   38.715637
H   41.262257   78.352928   33.433723
H   94.276360   17.213345    6.450739
H   34.077396   15.560980   57.886604
H    6.336497   55.615158   31.503771
H   75.806419   37.589504   14.993918
H   14.315851   41.980438   97.317589
H   36.473576   85.439201   83.746460
H   78.035202   34.682240    6.413725
H    7.970263   79.752548   13.613642
H    3.915952   56.285095   23.454567
H   80.292442   60.985527   42.825066
H   21.685045   11.790738    6.315409
H   99.219597   73.921806   25.032192
H   73.141037   58.044178   69.660904
