100
TIME:    5.476, STEP:  5476
H   47.002602   19.844631   94.132584
H   49.240974    1.598979   23.384438
H   73.886475   67.869385   59.066929
H   82.395737    7.038513   40.004845
H   46.123016   11.682970   17.228474
H   43.104717   95.275536   21.052679
H   65.971413   31.103374   18.683413
H   89.483490   62.344433    5.405086
H   19.017403   59.798325   55.393204
H   25.195219   95.010612   22.123472
H   90.890854   86.581436   12.273811
H   46.838448   98.174431    3.141845
H   94.632065   30.446442   80.898857
H   83.942329   88.197304   73.966728
H   47.107735   80.889236   87.546051
H   81.345398   32.778152   78.485077
H   83.759712   44.165012   71.890228
H   18.168264   28.375015    9.699671
H   30.558998    8.076762   51.857838
H   44.982918   89.524940   89.164192
H   39.323112   11.063721    8.616653
H   87.369797   51.353455   52.946289
H   12.631057   50.086266   75.675247
H   10.258274    2.337130    0.377180
H   33.730133   51.886330   76.981361
H   21.583624   64.776550   75.478882
H   89.877289   14.845604    8.617773
H   70.492043   12.040855   47.781395
H   30.241631   45.917332   98.319489
H   10.967836   55.308769   18.714825
H   31.569752   13.099374   76.135246
H   11.515154    1.218176   92.323326
H   56.080189   67.832130   91.118279
H    9.475167   71.880028   41.055321
H   44.653336   44.976547   58.177094
H   48.656712   14.332346    2.210234
H    5.019039    3.991696   39.952618
H   37.658833   58.742870    8.868387
H   13.927566   62.104118   13.647299
H   47.415127   99.537987   68.875694
H   61.005783   44.076889   71.357887
H   39.468803   57.624985   60.062428
H   58.408833   96.337891   97.011696
H   29.682644    4.557321   16.150534
H   81.652901   15.837981   24.706808
H    7.438303   67.363144    5.408026
H   84.515915   22.641693   78.030296
H   56.531864   51.770996    7.401734
H   25.099518   78.927185   26.033623
H   40.725948   14.079573    0.666602
H   43.126835   40.971329   11.152848
H   71.255928   55.608196   14.572075
H   22.460285   53.760437   84.831810
H   49.878273   17.855721   73.457359
H    4.787308   38.495411   46.924412
H    0.416059    6.773502    6.210846
H   43.405884   31.539268   76.800575
H   18.301376   59.747108   72.505966
H   22.157522   70.143517   91.087608
H   97.660141   48.692371    7.860115
H    5.130527   23.913044   87.443962
H    4.563550   76.972244   47.583595
H   45.826412   33.611130   57.964691
H   19.066269   71.593231   78.467316
H   49.675377   23.484726    5.524784
H   64.946648   70.044914   69.967186
H   48.219025   37.682049   31.444305
H    2.100865   30.716196   27.987066
H   29.825132   56.315895   16.786736
H   41.328568   23.568657   90.202240
H   48.145378   22.813629   96.458626
H   22.446182   69.787140   57.549881
H   49.946167   47.439911   21.342766
H    9.662624    2.843507   77.788414
H   26.191675   36.447292   16.515961
H   55.116737   58.534195   27.464506
H   64.141289   51.923443   87.894081
H   89.252762   92.658043   16.857965
H   24.107502   37.433987   78.779564
H   30.974316   10.714938   49.158905
H   18.028528   85.933395    7.277030
H   52.199883   79.983521   28.873713
H   64.245537   98.697449   51.450855
H   26.890326   80.752121   63.267979
H   85.693047    6.357038   16.915474
H   25.260410   10.195922   22.053436
H   32.884392    5.203051   84.660278
H   44.098137   66.879578   38.800125
H   69.325790   89.277672   83.404182
H   82.186920   83.978195   19.971708
H   48.123161   69.118500   49.104900
H   83.467445    7.327106   37.866386
H   36.475525   91.826790   42.472065
H   76.501717   45.395702   96.037483
H   61.914772   59.223827   41.918003
H   46.216751   79.490631   84.606277
H   27.942968   81.937202   22.259567
H   26.965399   62.862549   68.404610
H   47.848999   60.455181   86.364510
H   79.346008   38.111225   70.220963
