100
TIME:    3.122, STEP:  3122
H    6.194474   35.717949   96.287735
H   14.426107   74.015671   74.934830
H   33.419121   98.513748   86.691994
H   82.000626    4.023005   69.037048
H   67.207581   22.999569   81.054794
H   79.608894   97.825798   87.928032
H   89.346397   72.150902   34.597404
H   74.503250   58.693661   21.541950
H   76.883217   86.125748    3.567528
H   89.525536   61.210655   29.944048
H    9.854187   91.863144   39.022671
H   36.683075   80.180496   70.701744
H   44.671593   72.821991   14.827839
H    0.498204   95.452980   94.824959
H   18.475899   91.157944    0.699696
H   75.995361   38.667633   73.888039
H   73.054451   88.466919   57.596325
H   67.859337   42.877876   91.309265
H   93.893456    9.323680   27.841509
H    8.408432   39.515987   28.892878
H   79.012817   45.412849   72.504608
H   61.689529   48.228485   53.411133
H   44.060829   69.231194   43.026932
H   28.973907   74.125183   75.207344
H   17.923615   38.569405   59.596474
H   32.343784   34.584454   96.546547
H   92.865158   12.698577   61.919163
H   69.115746    2.164112   69.970329
H   79.055466   32.343887    9.594057
H   20.704632   13.570720   31.578144
H   38.925503    2.011841   62.376244
H   62.882179   66.251274   10.244850
H   90.266815   40.061501   79.051369
H   10.012782   87.610146   40.225449
H    3.166015   22.921021   14.837044
H   44.000301   29.733992    9.908090
H   79.239052   90.200668   54.466671
H   34.953323    1.812862   42.751850
H   13.290940   13.394373   41.766953
H   69.135117   19.911825   83.667030
H   21.885038   63.304401   15.898673
H   51.033592   51.976593   49.475082
H   38.132450   82.221649   26.979282
H   79.998535   65.097321   85.986412
H   85.845039    8.714396   23.269075
H   37.809521   22.464161   95.845497
H   66.125290   94.622101   55.430321
H   56.406147   27.527201   61.749596
H   56.286667   73.884880   19.935701
H   91.358177   78.261086   65.306427
H   43.306431   68.234528   86.334702
H   56.855824   74.041534   69.109520
H   73.639046   40.111145   21.548019
H    4.397503   56.271294   69.581818
H   92.214615   32.188255   26.901751
H   97.472549    9.250814   86.346558
H   94.173622   99.462456   52.915657
H   93.585930   82.053070   33.141190
H   36.502029   70.680771   71.806480
H   52.998024   67.756317   74.813484
H   56.638985   33.384731   70.979263
H   88.108727   98.882950   54.095345
H   86.013145   94.243095   19.385574
H   57.422600   58.777405   42.379459
H   56.241421   11.494636   86.307121
H    9.555780   87.069038   30.780888
H   37.085030   56.296314   17.792498
H   64.707863   96.087097   15.452254
H   12.501240   25.459312   64.427681
H   93.637512    5.169510   95.159088
H   22.895000   82.978645   24.698441
H   16.544268   47.912079   85.200226
H    3.430824   63.877514   81.699699
H   61.487034   51.813881   17.658806
H   12.696307   33.088848   38.067173
H   99.461174    7.663156   85.858429
H   50.412777   55.953285   46.263737
H   78.657562   46.581120   86.856155
H   11.225013   44.348431   52.514786
H   46.416634   38.923061   51.958084
H   71.974289   61.580181   66.583389
H   75.571976   64.616592   25.718073
H   15.327656   59.368591   27.254856
H   64.937515   79.315155   78.270020
H    0.313201   53.602612   45.109489
H   79.439392   23.729870   58.584377
H   75.666039   76.358086   72.412292
H    6.211725   55.339478   63.274651
H   20.473576   20.344236    2.657746
H   90.311646   80.828201   35.821838
H   51.787720   42.010487   99.392654
H    9.288174   30.297907   93.012779
H   85.580933   21.192076   60.433495
H   48.981487    2.604514   37.319145
H    2.611675   70.080627   87.827690
H   51.785995   72.447029    6.193546
H   14.792867   46.845669   57.640587
H   18.326834   42.819641    6.081688
H   59.988548   50.308010   83.536583
H   33.130268   98.519600   96.987045
