100
TIME:    9.783, STEP:  9783
H   55.737457   24.873932   90.189407
H   30.292946   34.990765   94.954033
H   47.931637   77.732307    8.502111
H   83.118652   29.591749    3.922267
H    7.535192   56.907578    0.449450
H   76.314331   90.609444   47.589394
H   40.242878   21.932871   55.496517
H   50.961792   34.955593    9.950550
H   13.143059   45.696442   84.282753
H    7.548532   56.854389   90.764748
H   90.264130   59.881302   97.399025
H   82.451591   14.061563   96.564903
H   19.920349   69.835793   52.899658
H   70.685944   74.921944    1.729739
H   99.430305   96.167053   80.435081
H    8.169079   56.072006   20.966351
H   37.416420   29.040276   63.973434
H   10.270865   18.797920   60.397842
H   97.642685   88.761581   78.774170
H   28.944759   98.060516   82.404747
H   83.739136   82.289680   91.715103
H    0.286087   57.071060   86.165482
H   55.125053   15.065445   52.447784
H   10.075741   53.861298   80.504089
H   79.688583   10.319054    8.785305
H    1.476935   37.700668   70.258751
H   18.479580   35.808926   94.073837
H    7.080976   13.077077   90.145805
H   23.893200   36.681980   94.725021
H   76.116920   48.710342   61.108955
H    1.077049   99.316833   35.379272
H   83.461990   82.217117   93.602791
H   59.459999   52.711349   79.126854
H   91.456665   77.169151   59.609001
H   37.484032   18.959572   20.258245
H   23.056608   51.681339   88.670876
H   18.116329   46.260994   79.327530
H   59.640522   79.922142   12.800902
H   32.128353   68.262108   96.267448
H   41.744114   96.330612    7.740319
H   66.652710   91.861801   72.827721
H   75.755714   79.970383   79.393059
H   95.479645   22.174950    8.109612
H   54.674458   76.856544   37.262806
H    8.037603   45.893620   93.262497
H   51.849342   49.506573   22.905870
H   18.177448   56.874912   19.378771
H   56.784725   96.131729   73.893784
H   50.995064   22.222515   54.227592
H   31.128073   79.644798   99.505013
H   45.755283   25.377922   52.062714
H   80.582642   55.949989   31.843229
H   11.791687   78.733887   34.690819
H   50.136925   47.587296   63.512947
H   61.857918   15.939923   83.545547
H    5.780474    2.242957   59.590378
H   16.452362    7.261951   86.432091
H   97.593948   53.003593   61.567650
H   61.845181   52.138634   60.445240
H   13.442503   79.742355   85.358803
H   76.823456   23.616777   51.643055
H   51.700127   36.883286   52.706841
H   38.244480   39.734558   62.632736
H   14.820761   95.055130   61.534309
H   20.626255   79.491219    6.616493
H    0.365033   55.931664   24.632166
H    2.659607   86.585602   39.385998
H    4.586965   77.037422   33.886581
H   44.486206   46.842346   46.660824
H   28.712616   40.018528   81.094040
H   11.369354   29.761166   44.803017
H   67.659874   26.766991   73.134796
H   69.122482   34.403027   10.911625
H   14.849537   30.254551   21.880785
H   33.726952   42.720196   43.055164
H   56.936600   34.571079   37.657578
H   55.288033   79.057053   64.249443
H   91.595161   11.043037   54.729759
H   30.643858   24.782963   26.836245
H   19.758026   76.092690   78.107094
H    2.333982   30.491983   64.700020
H   75.403587    7.922635   68.557060
H   36.669571   70.724648   61.627453
H   23.204250   49.311966   69.890739
H   75.981079   36.934380   99.402267
H   26.134647   68.401894   21.144596
H   20.539370   92.048042   90.034294
H   13.365398   22.232054   94.147903
H   58.709965   49.470192   48.178474
H    1.389734    6.775658   73.933731
H   24.383993    1.684599   40.061180
H    2.141832   31.254126   19.932032
H   12.562591   21.053053   75.538994
H   89.826210    6.474009   90.945976
H   87.447815   73.428658   40.887733
H    1.957265    9.412632   62.144241
H   86.074028   29.104042   74.558655
H   19.393854   70.522049   82.480980
H   42.673363   79.047554   25.608662
H   46.870468   27.587887   55.313229
