100
TIME:    2.510, STEP:  2510
H   47.580963   91.841606   96.848038
H   31.450081   40.833153   36.329975
H   22.899435   54.483292   93.873207
H   81.897903   29.238962    2.580753
H   72.689209   73.945084   97.649094
H   89.096687   98.488823   27.319307
H   21.421726   30.824829   86.738121
H   22.605247    5.749520   77.734505
H   91.927345   44.967178   42.091663
H    6.249697   52.423241    5.977149
H   66.780945   67.237839   97.973877
H   60.043030   49.503922   14.264601
H   83.600975    9.848949   75.654900
H   30.800652   97.339333   48.252888
H   11.030876   45.823700   30.118414
H    0.602038   92.195221   24.689863
H   22.267181   47.987312    1.882957
H   54.782318   72.639290   12.527443
H   84.358971   83.650955   95.600006
H   24.895340   52.510342   87.225136
H   15.329666    6.338307   89.117584
H    3.016495   47.416046    5.528577
H   52.231911   74.208549   60.536392
H   85.835297   66.785217   20.659027
H   39.811272   87.107849   55.080933
H   35.149967   52.817638   53.908852
H   45.638977   38.139370   49.774601
H   20.755678   73.598030   49.740108
H   65.748276   76.818916   38.522545
H   97.238594   28.717758   82.926628
H   14.839643   47.131313   10.796288
H   24.239967   83.163078   66.900795
H   47.159031   84.839027   23.917578
H   84.154350   43.696182   66.008713
H   18.379753   69.183350   77.569420
H   90.788834   81.658501   12.011559
H   20.541004   12.614046    6.243520
H   60.246323   13.013927   99.566139
H   39.125443   26.727243    1.074962
H   26.779821   77.205879   35.515583
H   63.708828   42.307056    1.479360
H    6.036692   24.507751   20.723131
H   32.860935   78.551666   82.773094
H   19.078630   54.839607   26.148806
H   38.931705   32.859127   70.898415
H   45.705120   10.791187   93.361488
H   61.341450   61.340118   49.551811
H   56.373463   21.226130   23.882469
H   38.399002   24.571407   44.349739
H   78.527245   68.950722    8.112751
H   43.353123   27.319510   79.881882
H   27.113470   30.829567    9.284214
H   60.947067   36.562561   57.093872
H   18.568493   66.257637   42.575226
H   40.939560   78.545532   21.704054
H   96.706802    9.894060    7.180481
H   55.373699   17.122322   94.709236
H   39.156830   39.849350   48.904373
H   88.235451   44.822796   18.788797
H   93.385239   20.714605   92.220222
H   18.033281   61.843441   18.696934
H    9.828739    4.580286   81.785309
H   44.484783   35.990547   61.362473
H   15.396147   55.448273   58.997105
H   31.947632   60.375507   29.312265
H   47.151894   17.493355   94.596138
H   86.186226   35.140217   88.244583
H    6.982897   61.086853   86.195114
H   82.000542   69.433739    2.808689
H   81.236145   74.389717   96.447784
H   42.329262   24.619436   32.040752
H   67.005188   68.223053   40.392227
H   43.335327   94.152519   97.388176
H   74.953850   90.541611   54.031792
H   83.188377   32.215710   91.672592
H   84.996025   68.441399   27.038784
H   94.846466    8.996397   35.440556
H   49.904690   86.598106   53.059048
H   81.875946   46.146069   45.683762
H   76.430183   72.255249    4.682503
H   60.000927   55.248760   30.005089
H   29.651672   60.619766   76.892677
H   76.609329   49.152405   68.964996
H   22.835331   26.945528   34.169037
H   30.113804   91.881897    4.436141
H   93.521667    1.250027   16.085415
H   34.791954   20.855484   43.229858
H   96.361206    4.337864   69.642891
H    7.771773   54.419182    7.664868
H   44.420994    6.005585   13.944869
H   26.742188    8.965005   86.468338
H   64.005661   84.275688   81.349144
H   46.330112    2.842494   13.095493
H   89.828590   65.484276   96.055367
H   13.194096   24.898949   73.764091
H    1.237272   96.614754   37.804321
H   63.370316   11.724168   92.836937
H   16.080954   37.608826   15.874146
H   89.142967   47.669918   34.799309
H   95.120773   14.231890   55.936920
