100
TIME:    5.899, STEP:  5899
H   18.397169   81.053856   93.745316
H   37.558388   24.521627   50.057003
H   81.160660   98.302200   54.100216
H   82.466736   89.610809   16.818226
H   42.334244   45.588287    5.759777
H   36.543751   94.817268   62.944981
H   43.803257   59.667622   51.762562
H   56.236526   98.941116   66.568214
H    8.619255   19.128723   28.765493
H   13.638433    1.084356   38.687443
H   51.544418    3.601751   71.527260
H   30.692596   19.376759   73.031898
H   67.639481    4.865772   38.867363
H   62.997581   86.893501    6.155751
H   52.251945   43.104782   67.214478
H   64.337875   95.780800   43.372772
H   49.744667   72.142845   10.397589
H   27.214201    7.793331   95.036171
H   37.146137   25.823320   74.143356
H   33.587555   80.540321   17.963923
H   14.221687   68.953979   97.135384
H   27.923218   51.914993   16.923904
H    6.982664   46.646034   63.573120
H   70.956581    7.397433   68.963257
H   18.602291   18.339233   80.105324
H   19.655352   52.271217   35.702293
H   53.402153   97.261734   17.011099
H   34.801479   31.785072   61.764999
H   39.439247   84.295593   78.323547
H   27.186550   44.839622   52.341965
H   48.219009   51.029797   42.668831
H   38.223606   89.529434   53.164070
H   85.874870   36.882957   29.225462
H   27.348907   33.114494   23.235331
H   34.139008   13.000231   83.936142
H   85.427811   47.463951    0.879928
H   45.589638   88.500610   73.283485
H   20.176838   51.000736   38.717266
H   96.072479   52.887138   72.655449
H    7.573935   59.939495    2.155039
H   32.096222   58.589760   81.323586
H    3.078322   64.736069   81.113304
H   62.052380   98.874496   27.565372
H    2.673594   11.657431   57.508156
H   44.960926   99.149063   60.903790
H    1.979766   75.431229    7.126528
H   87.820602   45.646072   82.090157
H   56.554455   56.127762   33.574589
H   37.463051   43.894188    9.159703
H   49.597614   20.517904   71.079391
H   43.096539    0.132709   15.612079
H   91.813408   16.355995   86.803352
H   31.235134   56.213135   60.265614
H   40.083618   10.953258   92.123680
H   71.107719   75.565643   50.522778
H    0.942951    6.328547   91.810913
H   70.221718   19.333870   17.031578
H   86.804108   19.799913   61.610825
H   55.517441   88.015938   58.615181
H   69.744568   81.205048   95.829002
H   31.814583    4.241922   54.462566
H   89.550880   73.035019   28.442871
H   74.544380    4.745541   28.958313
H   48.113884   73.897476   66.984818
H   66.466202   89.700821   44.917484
H   38.960960   49.016258   94.978249
H   14.280590   52.304646   51.866287
H   72.881432   54.907627   48.208912
H   50.908649   25.921806   90.257294
H   49.896873   44.845169   89.311523
H   34.713631   94.032715   91.385414
H   87.567581   55.748672   88.519089
H   22.365662   26.517754   10.496033
H    0.351976   76.070580   52.654716
H   46.585026   37.050785   48.582535
H   65.117577   85.643608   99.002228
H    2.545496   15.259577   95.374809
H    9.126079   65.000648   40.219910
H   44.390667   36.191502   83.497780
H   10.232704   87.672859   12.716973
H   26.306383   90.309525   32.557880
H   83.948212   82.726669   93.489281
H   90.999306    5.771095   91.734192
H   55.990578   16.949181   24.634762
H   65.096840   79.899559   75.910538
H   15.523846   25.733440   51.427719
H   61.135597   74.447426    4.830554
H   50.901146   33.029392   34.414314
H   78.103867   65.725319   79.944588
H   44.788074   66.576950   35.092583
H   65.434044   91.960861   58.037884
H   14.765162   39.140137   45.924789
H   63.590744    4.517370   75.183304
H   17.383392   71.058662   24.559435
H   54.601860   21.332874   51.638432
H   81.154785   62.786469   62.757904
H   94.367790    6.212250   97.932144
H   26.890894   78.340271   60.457001
H   27.698151   62.278568   50.934746
H    5.621601   27.257332   29.471172
