100
TIME:    1.040, STEP:  1040
H   46.991127   26.647926   98.193863
H   72.340736   61.133839   43.603085
H   97.633087   48.725536   11.128563
H   81.651169   89.801353   83.157707
H   85.855865   56.118111   37.505882
H   11.889320    0.081758   81.740532
H   98.464790   31.563421   71.782127
H   38.144348   78.574814   12.704124
H   28.062813   86.301559   34.622543
H   46.418983   31.316399   48.416603
H    3.516757    8.089200   39.571419
H   16.145489   75.820595   18.900629
H   77.107269   98.785759   21.761629
H    3.587229    1.870718   36.384800
H   93.150856   77.127533    0.779560
H   59.708191   20.770527   46.711411
H   40.452080   50.773849   68.044807
H   23.368515   44.125549   63.491501
H   61.458755   21.982088   18.154406
H   64.497536   83.727234   87.138939
H    2.561538   52.682755   29.017204
H   62.069813   45.472618   30.701244
H   71.858528   86.163963    2.593607
H   22.414291   49.154911   29.835068
H   92.388176    3.694674   44.235825
H   41.890308   96.621384   91.693924
H   72.399170   99.244583   20.603842
H   44.788536    4.982990    1.149173
H   33.784927   43.448673    8.011490
H   40.870953   65.099899   66.065605
H   57.012394   15.305685   27.114975
H   31.423285   23.778831    2.986077
H   43.614201   92.391319   91.488365
H   22.044518   78.412971   27.937159
H   54.920998   80.304054   88.057617
H   62.978912   66.181961   17.065840
H   79.548180   66.449074   90.413338
H   21.006485   39.919216   95.832039
H    3.964925   58.307060   42.448158
H   65.236092   14.821655   19.858747
H   64.167496   91.867104   66.846481
H   38.151909   58.535301   51.661030
H   20.198965   69.736511   76.592873
H   12.948511   30.200201   82.419441
H   66.442192   90.858170   45.104469
H   64.668968   82.755211   87.396660
H   47.061512   81.843185   36.509956
H   56.294956    6.091203   32.927212
H   95.432121   46.315887    2.987013
H   47.701916   46.578861   10.926582
H   43.465275   69.238213   64.382462
H   55.674706   67.235657    5.786860
H   30.452913   28.039001   42.468460
H   52.606655   90.235756   77.709183
H   57.966476   49.677265    9.231218
H   94.867508   11.438955   57.222748
H   62.181709   59.538246   54.900124
H   48.617859   78.672386   86.766922
H   72.298775   82.710754   31.641655
H   90.389771    7.724944   34.029503
H   25.304903   30.206703   33.309067
H   61.999512   18.265182   48.299141
H   44.775780   36.233772   62.210060
H   14.453779   47.451828   98.902229
H   73.602898   77.781548   92.414284
H   37.456367   90.571663    7.678535
H    4.127054   84.317780   17.273567
H    8.525893   77.015610   15.920615
H    8.734608   75.058563   95.004768
H   51.453270    0.451357   99.543182
H   89.006966   24.639669   49.674259
H   88.214371   17.010139   32.765198
H   39.182297   66.862068   35.081654
H    7.300483   83.566711   41.398308
H   12.315019   30.123495   80.236748
H   50.246868   74.227806   25.951191
H   61.381153   36.406364    9.436504
H   80.841415   82.718147   71.876480
H   11.401522   50.455906   29.284828
H   48.522018   52.314529   31.324158
H   31.233913   40.040936   42.146572
H   19.354797   51.019547   99.812820
H   83.600487   24.615213   28.954624
H   21.712118    1.155739   68.437538
H    1.689506   83.831543   46.936073
H   27.355480   47.256390   14.004164
H   36.613976   27.736458   73.134277
H   72.697113   22.029324   84.930916
H   77.265327   36.266106   19.691277
H   74.387405   66.489670   61.392467
H   66.583626   29.589182   55.424633
H   55.236423   73.724113   53.337822
H   52.012077   58.790985   99.371758
H   47.748238   76.317223   96.940880
H   38.611912   56.573586   39.983879
H   79.821304   54.662346   13.731766
H   80.052200   27.363722   77.377625
H   10.683677   25.092651   39.396271
H   59.168816   41.333324   57.934460
H    3.828963   51.990993   97.518745
