100
TIME:    3.764, STEP:  3764
H   62.778229   76.843384   95.699966
H   96.567009    8.822123   15.431641
H   44.454475   44.700890   79.158760
H   82.108383   77.573051   33.845104
H   61.457245   74.458702   63.647049
H   69.656013   97.130272   51.508034
H   55.697857   15.500254   84.802635
H   24.043320   14.236316   62.596981
H   61.101631   24.400253   63.158016
H   71.980644   70.428825   55.085846
H   50.136917   17.694965   77.181465
H   12.178024   12.360363   25.003115
H    3.834985   33.980286   51.017563
H   68.709740   93.474159   43.682674
H   26.285873   33.811325   69.841774
H   50.182526   82.515800   20.596498
H   21.428780   30.930073   16.040121
H   81.573936   11.657399   69.052429
H    3.894150   36.258171   61.662693
H   91.110832   25.883554   72.603264
H   40.915619   81.499390   55.079781
H   23.238693   49.080750   98.738937
H   35.489204   64.009850   24.658184
H   69.325111   81.824951   27.525768
H   94.962555   87.655136   64.337807
H   29.397879   15.455401   36.371094
H   37.504810   86.012283   74.654945
H   14.946765   32.130493   91.188774
H   93.014969   90.591751   79.246254
H   45.321213   97.680351   82.616028
H   64.194618   59.579853   11.583244
H    3.418542   48.514740   50.811714
H   35.488346   93.090569   36.887802
H   37.140015   28.774513   13.180004
H   87.207779   74.390526   53.928551
H   99.826164   80.167755    7.694189
H   40.815552   66.689926    5.053843
H    8.420121   90.066597   88.056709
H   86.192871   99.407829   79.552849
H    8.667065   59.811012   34.177708
H   78.009232   85.335770   31.023909
H   93.334244   80.789093   79.637405
H   43.662373   86.071533   73.350578
H   39.001678   75.853485   48.757538
H   30.156866   83.382874   78.206238
H   29.526882   34.709339   98.451271
H   71.140915   29.537510   61.596992
H   56.440434   34.137939    1.472943
H   75.054062   20.715408   94.325958
H    4.819819   88.027840   20.405666
H   43.257450    6.253315   93.103836
H   88.056534   14.467838   26.962208
H   86.952003   43.833679   84.262459
H   89.528404   45.794319   97.912262
H   41.098343   88.454529   32.360813
H   98.275833    8.574881   64.491364
H   34.872875   80.937950   13.975277
H   45.780754   21.424316   16.603020
H   87.135628   97.806290   22.518436
H   10.634450   17.101179   56.553474
H   97.136238    3.529740   20.925190
H   65.322899   92.907303   25.044884
H   29.597872   50.434746   75.361687
H    1.506069   62.269730   24.947224
H   81.722679   60.220531   46.094288
H   70.116707   55.153206   68.740860
H   85.575455   78.492676   48.788616
H   20.360725   32.805069   46.143566
H   44.500206   79.329300   24.160686
H    6.645449   37.460815   93.807220
H    2.507589   39.297646   16.996223
H   63.607018   26.605469   32.203831
H   61.571732   32.123318   65.242180
H   47.352383   11.185635   79.510216
H   43.648617   34.004787   86.734413
H   14.639188   48.810410   42.659863
H    8.701395    0.307678   57.617466
H    8.819896    4.601301   22.311022
H   42.009583   42.462673   59.680664
H   14.931789    3.957695   96.649345
H   84.532944   68.221970    4.954694
H   23.741638   68.809341   72.034058
H   55.947338   70.085571   88.402374
H    9.107817   34.252998   19.634018
H   69.053696   13.443403   82.874893
H   64.666809   47.313225    3.166692
H   18.543783   29.679466    3.025326
H   16.544207    3.939406   56.598579
H   33.798447   84.598991   97.406136
H   33.550167   54.416023   58.769302
H   78.060974   76.675926   12.950601
H   56.793571   78.576714    5.247456
H   26.733383   40.456192   10.080423
H   11.032152   41.547302   80.605278
H   91.512184   12.572887    2.580462
H    4.812569   47.094612   73.033379
H   63.833710   83.688957   20.718176
H   20.682806   48.285889   95.807686
H   29.404991   53.075420   29.762436
H   73.006569   82.042488   35.141708
