200
TIME:    0.168, STEP:   168
H    7.258726   62.713947   14.108421
H   27.322546   31.827026   86.974266
H   19.646801   65.986725   41.801811
H   15.415505   76.132210   46.382477
H   15.974586   81.904419   54.693687
H   91.960876   54.769188   67.680779
H    2.316097   55.355217   48.257748
H    1.275143   85.777252   27.628025
H   84.504463   88.585632   49.475857
H   13.395748   75.907433   98.912422
H    9.684055   93.056099   90.686401
H   30.480072   40.101059    9.311589
H    9.407023   84.618355   64.242607
H    7.806973   52.903164   38.796322
H   23.098082   71.390327   43.155746
H   31.399052   28.932949   55.876198
H   80.820328    4.346419   18.927761
H   38.271927   79.705795   44.802197
H   62.629856   32.308544   41.423927
H   89.827187   80.693443   40.261799
H   57.221001   73.164078   29.139118
H   91.631935   46.062294   73.349289
H   97.161278   63.064957   50.863808
H    7.088858   87.410942   91.810829
H    0.116967    9.808178   47.979504
H   18.720694   59.141178    9.334539
H   97.501595   57.352055   46.186966
H   92.857941   67.159279    0.541822
H    8.036092   58.718208   38.759964
H   96.303024   18.835558    1.116457
H   13.455494   48.441196   16.106785
H   33.235348   61.818832   91.830482
H   28.862984    7.436260   72.299698
H   98.809486   63.499367   37.031815
H   51.443638   92.776108   34.766758
H   35.413155   51.563583   78.650856
H   84.197937   75.983017   85.414406
H   36.476398   42.892857   18.404701
H   55.734985   48.978832   42.831200
H   90.773239   39.984570   66.508881
H   80.482887    8.587158   99.134354
H    9.755571   44.616684   41.966057
H   77.998245   89.435921   47.654758
H   37.441666   59.737282   16.173277
H   26.317030   74.098434   41.765648
H   42.073006   15.712284   41.904827
H   78.617340   29.739616   94.600273
H   91.868690   65.551704   50.236038
H   84.295883   31.484463   61.114422
H   64.693893   17.476583    8.758566
H   79.921005   71.407433   30.722157
H   23.890467   34.458721   61.993393
H   50.235207   96.482719    6.986250
H   23.478172   80.664291   80.636940
H   80.246506   77.986191   93.101906
H    6.228643   74.123802   76.290558
H    5.635962   16.473000   50.426929
H   66.622055   56.905628    6.602951
H   29.700434   73.086594    5.385084
H   44.768543   96.393471   68.325226
H   50.652702   16.781145   44.340111
H   88.643051   16.254320   48.514393
H   69.463730   23.714937   87.313995
H   22.381546   65.049614    2.059964
H   70.190964   75.005707   14.985380
H   41.564011   13.763924   31.569107
H   88.864601   24.680710   84.347572
H   97.744621   91.286232   85.846077
H   13.961491    4.880271   62.891121
H   45.651424   40.375072   50.986439
H   58.496750   75.346832   71.355438
H   34.163898   25.714365   45.268826
H   75.208633   24.418346    1.906599
H    5.519713   10.547273   58.476711
H   78.268326   99.706032   70.998154
H   51.493874   21.618565   63.347961
H   95.731903   27.269808   73.164009
H   29.222034    4.658857   50.429573
H   10.983166   26.485556   36.533123
H   69.360992   91.068497   97.676178
H   40.312252   31.318922    2.202352
H   23.470612   69.884987   90.083061
H   11.280620   12.876521   92.386345
H   27.021982   59.505226   91.504852
H   41.472153   98.562500   59.822632
H   22.638725   88.293488   29.281631
H   32.628258    2.634077    1.606263
H   75.930244   21.224047    8.726506
H   63.485657   71.871590   76.904305
H   23.804756   82.819923   55.657619
H   44.261040   34.271244   81.074738
H   84.556953   87.903748   96.796799
H   43.839375   17.674126   97.780426
H   63.256474   97.020378   67.127678
H   23.300484   57.900139   64.941063
H   72.253761   26.099525   32.446964
H   78.328911   16.769499   95.228333
H    8.874018   27.319889   47.911869
H   38.649376   70.499283   52.626091
H   65.952538   96.757339   27.232828
H    6.653900   78.435669   65.549416
H   87.894936   75.567276   66.261757
H   21.686903   39.801178   29.496632
H   18.416170   67.806549   87.303177
H   25.434183   28.418930   22.753216
H   84.572701   30.297983   47.261650
H   62.247601   29.202768   56.594315
H   65.175270   31.509941   21.525679
H   70.966789   40.998497   95.651024
H    2.053851   29.064264    5.184878
H   46.247246   96.692451    0.745193
H   83.102905   61.534477   89.691032
H   58.344559   79.439148   95.501472
H   63.468071   20.949577   76.810669
H   66.252968   78.970398   29.297180
H   16.976833    7.903666   75.686279
H   35.535206    7.428859   83.340744
H   41.136410   23.452564   35.417717
H   16.127981   55.010426   87.098129
H   68.882545   45.237850   46.656876
H   39.803108   21.280979   89.879143
H   21.395756   29.185658   46.070274
H   30.500555   24.859188   21.893270
H    5.138110   69.909950   21.018143
H   79.070793   10.734765   95.194420
H   45.084530   60.382305   26.921568
H   97.176308   48.853745   73.835403
H   77.003563   87.005272   34.394482
H   91.581673   55.089901   86.531075
H   64.255386   24.490608   65.274986
H   45.702522   87.756500    0.659833
H   84.463615   85.337265    7.629056
H   92.672859   79.091743   96.839569
H    4.451108   11.156910   48.820770
H    0.869225    2.671979   59.725418
H   64.275742    1.719256   84.742332
H   68.773514   86.381050   51.754372
H   90.604210   66.468727   84.336006
H   44.431274   43.326736   71.567116
H   43.408943   12.543139   97.458099
H   47.053143   65.186157   12.584207
H   60.552872   38.823174   44.568455
H   57.320045   55.435764    1.812729
H   61.012276   29.134064   76.931313
H   36.917599   72.154953   46.714176
H   43.302040   60.735100   33.294502
H   43.028374   97.093102   47.797428
H   44.618446   76.098808   69.238060
H   63.260471   67.798141   98.660217
H    7.161185   87.880920   92.692383
H   78.758064   60.087170   51.887745
H   30.756571    9.101919   50.408646
H   72.830963   34.530788    5.992246
H    8.006578   99.490005   77.731758
H   10.757465   51.977581   59.450508
H   61.364708   43.350376   51.845840
H   58.557598   58.724499   79.903244
H   45.022415   37.815109    8.037319
H   15.677084    2.005625    5.274971
H   64.486732   59.881561   75.478012
H   53.248703   87.334496   85.330254
H   46.984600   23.429424   36.167725
H   62.120113   37.709015   37.261990
H    8.631849   18.064518   74.279358
H   59.643578   19.645277    9.117094
H   10.673202   66.729897   62.695408
H   76.139641   98.731514   51.458424
H   23.569317   27.656715   45.035419
H   93.094627   28.404356   37.026947
H   23.187218   11.003057   91.214142
H   80.740479    4.777572   35.982117
H   48.650246   68.121185   57.237015
H   36.281799   80.547989   92.449905
H   72.109825   76.270233   72.576248
H   74.784302   95.578171    2.616666
H   98.684341   47.271935   23.217669
H   36.157398   50.671974   83.896065
H    1.091885    9.132195   63.959545
H   77.442879   23.053331   69.976944
H   89.725517   53.682762   85.369316
H   82.732330   82.609276   43.393341
H   17.775412   30.018154   66.987686
H   68.949722   90.240463    4.645000
H   49.913170   25.086992   74.541481
H   84.591873   91.457245   78.693466
H   97.753105   35.616226   83.593849
H   28.845083    5.757885   97.669937
H   93.880096   64.174751   23.007244
H    8.703445   60.852329   65.720535
H   48.304276   58.664974   64.793350
H   44.380726   33.406456   79.815620
H   48.243156   82.972534   25.541471
H    2.501187   15.811118   56.156891
H   36.361500   60.657333   31.862249
H   87.365433   57.471310   22.051804
H   75.152359   10.206772   30.552807
H    8.982688   83.596153    1.036582
H   31.001974   98.837151   48.997261
H   12.873446   11.410433   81.237160
H    8.758720   37.431980   98.749100
