100
TIME:    5.195, STEP:  5195
H   66.005775   45.613319   94.389847
H   57.001747   86.373093    5.666471
H   69.054214   47.652786   62.366329
H   82.348572   18.616428   55.408478
H   48.639908   89.159668   24.846680
H   47.463184   95.579964   93.224266
H   80.699730   12.128180   96.708771
H   11.569542   38.035206   31.206219
H   25.924919   86.815247   73.081093
H   32.873573   90.975868   11.119040
H   17.028778   75.274719   39.340824
H   57.564178   84.089272   23.143045
H   12.563278   47.438774    8.820557
H   97.855980   89.063423   52.582726
H   43.690422    5.989353    1.052480
H   92.643539   57.355362    1.810329
H    6.356091   25.579891   46.309692
H   12.159368   42.046696   19.440298
H   26.182308   96.288528   37.054485
H   52.552887   95.493446   70.032387
H   55.998055   39.038948   16.243435
H   60.430054   50.980423   76.876053
H   16.383293   52.371620   83.714722
H   36.367451   98.975555   21.246891
H   43.780548   74.170776   74.906105
H   22.864580   73.081863    1.904007
H   14.107832   26.526478    3.041892
H   94.203133   98.924759   38.492050
H   24.131630   20.423037   11.602058
H    0.193378   62.263451   96.376625
H   20.510651   87.901276   98.367073
H   93.772804    8.981395   18.336845
H   36.285931   88.391747   65.803581
H   97.602036   97.632072   52.893715
H   51.638031   66.217911   41.066948
H   24.229914   92.323036    3.093977
H   78.066681   14.283295   17.810833
H   49.272121   63.885990   89.038506
H   25.789448   68.226982   40.877884
H   73.881874   25.844528   46.766537
H   80.210480   34.435951   64.737648
H   64.723473   45.012657   46.862682
H   55.988415   94.652817   76.713631
H   47.624607   99.840637   88.675705
H    6.028318   26.923889    0.660206
H   11.064383   62.003498    4.266090
H   82.320602    7.359200   75.333321
H   56.516857   48.876785   90.015114
H   16.886391    2.200737   37.243294
H   34.832478    9.802572   20.319443
H   43.148273   68.099731    8.190570
H   57.599541   81.682510   33.019989
H   16.631130   52.131104    1.150952
H   56.384888   22.441437   61.057274
H   27.161663   13.869634   44.534008
H    0.066041    7.069087   15.776749
H   25.592552   39.647346   50.075218
H   39.224747   86.283806   79.743637
H   99.996254   58.270645   12.659637
H   16.203114   27.092983   15.852425
H   87.404938   36.980534    9.353520
H   14.535807   79.587753   60.298828
H   26.748499   52.785812   77.233704
H   99.770363   70.062515   86.095169
H   38.520874   45.928387   79.356606
H   82.209007   84.014305   53.352272
H   70.763855   27.967773   17.876888
H   21.511757   14.644752   14.553641
H   15.819304   76.506767   34.411407
H   35.636620    9.435011   90.793945
H   57.068123   41.932571   99.828773
H   45.615318   79.112930   36.975258
H   68.267593   61.338554   28.548279
H   15.847660   20.627819   94.484795
H   12.643685   36.046391   95.213837
H   48.472916   40.523628   46.371464
H   38.627224   76.278755   82.924614
H   76.050873   11.031654    1.338978
H   10.633130   38.259373   75.645241
H   44.752823   26.021912   73.367371
H   12.529865   83.026321   90.482292
H   31.112816   78.154861   52.375023
H   46.470825   93.998108   24.689054
H    7.558069   56.706589   88.934204
H   99.375160   23.934250   44.155357
H   31.728436   99.874321    2.539665
H   14.117041   25.634109   71.261154
H   39.576813   89.370743   41.717804
H   63.494492    4.923359   85.702400
H    7.030406   95.537888    9.926977
H   36.623497   53.945683   43.170696
H   62.676289   86.193207   32.513168
H   18.462816   83.397133   20.741901
H   49.344460   28.347731   77.090050
H   66.772758   84.393150   35.460697
H   23.007324   90.587250   99.120209
H   50.247490   65.811089   38.419983
H   25.934202   60.470001   72.902428
H   61.235260   59.243900    9.900688
H   61.890957   45.321026   97.289337
