100
TIME:    9.971, STEP:  9971
H   43.023590    7.633878   90.017288
H   25.101402   45.178783    6.807786
H   51.163174   91.258003    6.295042
H   83.150208   21.845671   93.617691
H    5.850576   71.976608   95.351891
H   73.399780   90.405769   66.208214
H   30.390373   34.628090   70.198364
H   36.185364   51.219418   92.689247
H    8.521660   27.620888   72.449562
H    2.412956   59.553791   98.125710
H   72.776825   67.445938   79.289223
H   75.277092   23.484444   83.182640
H    7.932010   58.456551   34.217560
H   61.377167   74.342476   16.037128
H    1.714013   79.373962   71.393089
H    0.609598   39.628891    5.360379
H   22.298622   41.474449   81.087814
H   14.291282    9.650038   53.881699
H    0.571564   96.647507   88.685364
H   23.880154   94.067352   95.204674
H   72.582947   63.574558   86.611771
H   18.309830   57.320633   70.155533
H   52.614609   13.532324   47.104469
H   92.608093   56.110321   66.542358
H   72.964462   95.409668   10.173016
H    0.590073   32.158432   52.566845
H    2.268099   27.993650   97.803085
H   91.217812   21.852283   96.359306
H   27.981030   53.738987   85.837936
H   83.325844   44.057388   76.054634
H    8.476378   16.174946   20.505310
H   95.332474   77.021988   76.198677
H   72.702187   38.956161   96.063377
H   99.399963   59.940025   51.688652
H   32.805260    4.725360   31.696997
H   39.398930   66.407333   88.079933
H   36.147797   39.376228   94.141251
H   51.870777   76.482628   26.066986
H   24.192226   64.165672   78.048637
H   24.037033   78.731430   22.531809
H   53.804016   98.313400   77.256920
H   59.911774   80.710495   88.985832
H   97.097565   23.303047   21.688587
H   42.670582   80.012062   55.643696
H   91.714905   38.452335    9.340529
H   49.423897   53.092388   23.669649
H   19.647633   67.099792   21.183870
H   56.796200   98.068069   85.526169
H   56.489777    6.657393   46.692108
H   35.073906   82.507713   86.360847
H   46.802341    7.306847   52.415558
H   89.719299   38.504280   19.501570
H   15.691261   79.823975   23.771835
H   45.783745   44.519272   71.809090
H   46.889290   32.415329   85.143387
H    6.014627    2.045199   53.190414
H   28.370178    1.837149    4.312470
H   83.594925   35.249504   56.725365
H   76.673241   60.083366   46.011616
H    1.036657   94.191757   80.011635
H   88.682465   14.873842   36.985676
H   45.027641   35.133408   44.199852
H   51.022892   26.930044   49.752487
H   27.730446   96.079239   56.429543
H   28.088337   64.476692   24.124418
H   88.815857   46.585594   35.748196
H   87.576118   93.085968   48.462414
H   91.600456   87.789131   42.874069
H   53.856659   33.333862   34.869228
H   32.530792   49.460697   80.695297
H    5.398691   16.968410   42.548256
H   52.178856   20.524803   86.915802
H   56.864731   25.103758    6.090855
H   10.711506   18.356098   10.710970
H   42.783287   42.997021   57.309498
H   61.381577   46.620853   25.007858
H   72.362251   62.785946   67.582817
H    0.427696   98.750771   65.112999
H   39.658600   24.230747   28.934664
H   10.538682   65.851601   61.910683
H    6.014104   32.436932   75.936531
H   89.511620    9.143235   52.829262
H   48.561569   73.868690   79.530899
H   36.138058   65.399368   52.719933
H   66.827209   25.174339   81.177719
H   21.807285   75.306740   34.199833
H   33.095463   78.378914   98.998833
H   16.388645    7.188334   92.200089
H   62.611332   39.002480   46.640877
H   84.768677   99.040512   80.654984
H   32.077721   11.835664   44.031395
H   16.051928   45.393677   23.513544
H   24.613697   26.694258   90.077324
H    6.934707   17.800140    5.251790
H   84.197632   56.589035   45.207924
H   17.485352    1.989039   52.433853
H   71.151299   39.892853   63.746704
H   19.030970   79.825089   78.705833
H   33.717430   79.859383    9.861195
H   58.547318   22.763531   37.201992
