100
TIME:    2.542, STEP:  2542
H   45.416901   88.907036   96.818741
H   30.559944   42.568260   38.348530
H   23.449484   56.785538   93.497719
H   81.903275   27.920481    0.826680
H   72.402588   76.510025   96.781418
H   88.600594   98.454155   30.488375
H   19.744602   32.985718   89.240562
H   20.090111    8.517866   74.796516
H   91.140724   41.890518   40.077259
H    5.375307   52.882713    7.230292
H   63.804382   68.525436   94.891357
H   58.821594   51.107925   11.986891
H   81.565331    7.912853   72.474236
H   29.216179   97.240700   50.688190
H   11.420158   42.965302   28.580206
H   99.315369   89.396393   22.033491
H   19.694427   50.103523    4.796378
H   55.466156   71.083138   11.417946
H   84.857506   84.993240   97.286041
H   24.033279   51.830898   89.403847
H   13.430740    3.152543   88.248932
H    6.084366   47.458527    2.803503
H   51.804665   73.948296   59.620865
H   82.862152   67.169006   18.282318
H   38.666740   84.569763   55.317017
H   35.003239   51.864269   50.909584
H   42.879456   36.809048   50.409611
H   18.055605   75.091682   50.797970
H   66.444077   79.722237   37.009850
H   98.465645   27.925766   85.470573
H   16.098555   50.000942    8.264244
H   26.260475   82.278801   63.938393
H   49.413181   82.497719   26.800390
H   85.506401   40.763565   64.660568
H   17.584221   66.764404   79.518150
H   93.571060   84.172173   11.901574
H   23.610218   11.442049    8.764943
H   58.923813   12.428234    1.824273
H   37.774612   26.030100   97.973923
H   23.765783   74.210274   38.033405
H   61.522060   43.404957    2.233429
H    3.160689   25.944031   22.226427
H   33.136570   78.743561   85.084618
H   17.035295   55.375984   29.277590
H   36.156071   31.596676   73.636696
H   45.292278   11.401539   93.491371
H   61.591694   63.080353   49.859184
H   56.375172   21.555597   25.862450
H   39.334305   21.921261   43.073128
H   79.198143   69.437538    5.874685
H   43.350681   24.230032   80.219284
H   28.668524   27.860207    7.183396
H   61.610886   36.748108   55.235229
H   17.827526   65.735664   43.987335
H   38.391953   81.350708   21.975538
H   96.746841    9.860430    6.091125
H   57.402264   16.198982   97.752693
H   36.774017   36.827377   48.080154
H   90.759377   46.174847   16.332132
H   91.273422   23.174322   91.310066
H   20.051958   60.355404   16.202061
H    8.693119    4.282373   80.337555
H   46.655437   33.808418   59.167160
H   17.593534   55.622345   58.128208
H   33.217892   57.819599   32.292381
H   45.186073   15.902534   96.488228
H   83.618843   36.246418   89.789505
H    4.772387   62.916931   87.724899
H   83.595268   67.134422    0.801659
H   81.884583   75.999092   96.380402
H   41.313148   22.442068   31.656830
H   64.366516   67.161041   42.735245
H   41.248901   92.569511   96.567863
H   74.249748   88.516708   52.129936
H   84.731346   32.261364   94.098373
H   85.752373   70.492180   24.885586
H   97.751740    6.222837   36.006474
H   51.408108   84.505821   54.826382
H   83.410614   46.052074   46.040939
H   74.860847   70.512573    1.925709
H   60.627148   55.579815   31.917564
H   32.052795   60.828751   74.216896
H   78.633743   49.686584   72.012848
H   25.036747   29.683809   31.246185
H   28.555576   89.880432    1.334140
H   92.785339    2.425452   18.307583
H   36.929161   18.528824   44.755737
H   96.876343    1.775901   69.309883
H    8.435925   52.637444    7.403058
H   41.591648    4.688934   15.088729
H   28.051758   10.692910   87.144119
H   66.373337   86.681938   81.959007
H   48.383335    3.801310   15.571140
H   92.921364   67.425194   98.213081
H   12.640751   22.032494   74.499443
H    3.880369   95.351082   36.151489
H   60.830276   13.560533   90.996605
H   16.198385   37.881287   15.362122
H   87.618553   47.807858   32.118889
H   97.108078   13.409929   52.854889
