100
TIME:    5.788, STEP:  5788
H   25.903337   91.233147   93.846939
H   40.624031   18.506361   43.057682
H   79.251831   90.316284   55.403538
H   82.448105   94.183868   22.902512
H   43.328461   36.691147    8.769316
H   38.265423   94.937523   51.951855
H   49.620358   52.172039   43.082218
H   64.960907   89.337692   76.759361
H   11.347847   29.800888   35.752762
H   16.670626   99.490471   34.341343
H   61.869370   99.135513   82.219749
H   34.929451   13.812954   80.933128
H   74.722641   11.578430   49.896904
H   68.493721   87.235634   97.708549
H   50.902046   53.019852   72.549713
H   68.800842    5.489348   52.586639
H   58.670601   64.800545    0.292817
H   24.840445   13.194199   98.884315
H   35.417690   21.166422   68.294922
H   36.577827   82.897987   10.406519
H   20.808586   80.003845    0.148496
H   17.281540   51.767639   26.376587
H    8.464812   47.548790   66.748856
H   81.269676    6.069552   77.206619
H   22.571960   27.142372   79.285561
H   20.161352   55.552811   46.139877
H   62.974243    1.875674   14.808523
H   44.166935   26.603966   58.095543
H   37.025688   74.224701   83.570709
H   22.930641   47.586845   43.517654
H   43.850044   41.076618   51.450798
H   31.214970   92.596771   63.439903
H   78.056633   45.004372   19.225706
H   22.658558   43.287010   27.911283
H   36.898087   21.391294   77.176483
H   75.778656   38.770058    1.229016
H   34.943726   92.565552   64.537086
H   24.764362   53.032360   30.884632
H    0.757439   55.305779   83.412300
H   18.028879   70.330833   93.422081
H   39.682419   54.781418   78.708473
H   12.432975   64.300781   75.446098
H   61.096272   98.208862   19.547699
H    9.761131    9.794333   46.655609
H   54.588909    3.528493   51.405376
H    3.412181   73.314072    6.675574
H   86.953415   39.609634   81.024803
H   56.548527   54.984497   26.706533
H   34.218719   53.086884   13.587737
H   47.269588   18.828413   78.843430
H   43.104160   10.849276   14.441926
H   86.418892   26.655964   94.089760
H   28.932514   55.569519   66.712425
H   42.653847   12.764485   87.225426
H   79.945580   65.838577   49.578526
H    0.804688    6.445309   95.589615
H   63.184387   22.536705    6.474396
H   95.069489   30.282804   64.469833
H   46.763420   83.326012   67.136314
H   77.069931   72.673752   98.986107
H   24.812298    9.403763   63.116657
H   93.490486   74.068192   33.465614
H   67.008995   12.320093   36.569916
H   40.491272   73.292816   69.997955
H   62.060448   98.565781   34.580677
H   45.779900   54.534416   88.415062
H   23.186623   48.467510   46.507339
H   80.548927   48.559544   42.902470
H   45.376095   33.897560   97.218506
H   47.648453   39.261803   89.545258
H   38.238274    1.585077   92.716682
H   96.720474   59.432526   80.392593
H   29.603374   32.007965   13.342339
H    2.795228   83.096153   59.250084
H   41.233700   36.892422   40.168106
H   62.493507   78.529961    6.471072
H   92.467705   24.880362   93.411781
H    3.911097   72.258263   34.089470
H   39.068134   36.517544   82.259666
H   15.676126   93.719460   22.279675
H   24.134180   89.161179   25.923944
H   75.616776   82.006836    2.774376
H   83.978813    3.914880   81.163651
H   48.354416    7.450534   34.772556
H   70.501518   86.842140   86.670776
H   18.078831   21.656219   43.719574
H   53.722160   82.518028   99.537598
H   49.115959   41.912136   35.565201
H   75.800400   71.905724   80.852425
H   54.602367   71.143234   31.124937
H   60.891472   85.966766   55.693768
H    6.552286   30.791826   43.810173
H   56.475403    1.186696   66.599503
H    6.655930   64.324409   17.074862
H   56.520851   31.275890   49.087681
H   71.986649   67.169830   68.491165
H    3.178469   99.842354    4.315942
H   27.105150   72.847519   62.685097
H   32.985962   61.800091   60.232452
H   98.726990   30.105755   40.164509
