100
TIME:    7.100, STEP:  7100
H   37.177811   70.916847   92.645767
H    4.392369   89.602119   25.782570
H    1.813135   84.706703   39.998508
H   82.668320   40.131134   50.988422
H   31.576815   41.853649   73.195282
H   17.915569   93.516136   81.883255
H   80.858597   40.764065   45.682400
H   61.840294    2.842880   56.296211
H   79.096321    3.657273   53.168003
H   80.833351   18.330477   85.711464
H   39.830322   51.926411   55.840912
H   84.853653   79.577026   87.543648
H   91.006203   32.230976   19.528355
H    3.532059   83.191689   97.552345
H   66.842598   35.825829    9.464504
H   16.047863   90.736938   43.679199
H   53.167366   51.579708   19.729364
H   52.897816   49.352966   53.402275
H   55.847622   76.207901   37.417057
H    1.233345   55.034023   99.733665
H   42.952652   49.390450   64.533775
H   43.064255   53.509338   14.647659
H   90.946968   36.878380   29.211863
H   59.366402   21.764864   79.766312
H   75.647774   23.094315   88.975014
H   14.130184   16.793266   22.740953
H   49.838444   47.339180   40.843807
H   33.464600   87.843712    1.459465
H   65.553520   93.259804   21.551046
H   73.238815   15.115097   47.817955
H   95.484322   58.725548   47.649605
H   14.055475   56.343517   41.981483
H   70.472420   49.012291   37.421028
H   78.093483   23.049973   72.639740
H    4.256262   22.100380   57.022514
H   89.828789   41.531555   97.104378
H   60.780548   44.518677   67.917572
H   70.534798   29.018932   23.468956
H   45.379932   26.718813   56.269455
H   94.452980   47.505428   96.647446
H   50.016617   99.803291    9.617916
H    1.864529   69.445801   42.427380
H   72.389862    6.078712   14.314991
H   25.984905   31.815817   74.935417
H   40.783318   51.760899   63.676338
H   86.476830   98.338486   12.005774
H   97.203415   10.959897   93.617088
H   56.620968   68.497681    7.885515
H   72.568367   44.427502   61.254250
H   74.805420   38.799976   87.100166
H   43.014072   84.184128   28.270699
H   50.188610    4.911050    7.965969
H   56.149067   63.176941   90.511757
H   12.274208   91.359116   45.119156
H   75.482224   80.815269   60.739414
H    2.438801    5.065212   50.926041
H   46.360340   84.678780   31.256630
H   97.375412    6.379756   30.676668
H   50.238228   38.766369   66.417732
H   90.492393   73.518402   61.669701
H    7.573709   48.387955   60.822960
H   46.925056   61.856277   74.102600
H   56.080479   22.791882   46.602142
H   30.583580   80.439789   34.374882
H   14.133170   93.778870   56.761189
H   65.183228   89.311394   65.991257
H   17.922228   93.828339    9.849795
H   89.920067   23.594221    5.623656
H   10.764086   39.625610   14.932296
H   74.228233    5.250434   86.782562
H   96.574547   12.317843   76.981331
H   88.591682   15.861728   76.474953
H   44.058273   67.115265   79.705627
H   73.907951    0.061033   81.295959
H    4.486187   38.769550   39.628391
H   93.504250   62.617657   18.189837
H   11.614186   11.276989   16.660875
H   65.551239   86.468880    6.545043
H    1.985303   32.663784   96.893944
H   51.334091   22.249050    9.249837
H   49.809227    2.735050    4.339896
H   74.074318   90.515274   93.018501
H   66.967369   25.855139    6.110748
H   38.618237   19.721497   14.942364
H    6.618483    4.774514   59.486992
H   87.883713   69.850952   34.828873
H   41.347736   87.124626   62.098763
H   70.216545   36.924664   21.961929
H    3.027379   98.856133   70.121956
H   38.603352   17.161892   78.023773
H   14.584003   56.810013   83.400803
H    3.627001   29.466850   68.806480
H   40.577091   40.555065   68.058479
H   33.454323   43.921593    5.541089
H   33.838722   13.754372   79.237091
H   80.352463   15.360860    0.724493
H   99.038109   75.134216   28.861973
H   24.572680   37.767376   36.349403
H   70.485466   67.461723   50.338528
H   80.219109   96.437668   13.774348
