100
TIME:    6.059, STEP:  6059
H    7.577229   66.381004   93.598831
H   33.139442   33.192280   60.146114
H   83.912125    9.812934   52.221554
H   82.493591   83.019012    8.047807
H   40.901138   58.412994    1.421744
H   34.062061   94.643929   78.789787
H   35.418247   70.471336   64.274773
H   43.660843   12.782983   51.877262
H    4.686150    3.745181   18.694082
H    9.267706    3.381887   44.952091
H   36.661606   10.039534   56.115288
H   24.585419   27.396778   61.642738
H   57.429520   95.190163   22.968925
H   55.075218   86.400337   18.332264
H   54.197746   28.812927   59.523335
H   57.904770   81.786659   30.091434
H   36.878456   82.726341   24.963018
H   30.635832    0.008310   89.489296
H   39.637592   32.535965   82.573532
H   29.277252   77.141884   28.857477
H    4.727058   53.025402   92.792122
H   43.262573   52.127396    3.298465
H    4.846281   45.344765   58.995483
H   56.090206    9.311495   57.080219
H   12.880078    5.650024   81.286964
H   18.925982   47.540993   20.656666
H   39.604546   90.611343   20.186148
H   21.301239   39.253334   67.053604
H   42.918251   98.812195   70.760071
H   33.321323   40.879662   65.061691
H   54.516617   65.376839   30.010139
H   48.326145   85.108047   38.352058
H   97.144402   25.176771   43.639526
H   34.109581   18.451408   16.495218
H   30.161674    0.905188   93.679413
H   99.336502   59.995689    0.376750
H   60.935097   82.641235   85.890907
H   13.563791   48.072269   50.007549
H   89.319550   49.400810   57.150078
H   92.503464   44.960247   14.743540
H   21.161770   64.079277   85.093117
H   89.594376   65.363510   89.282249
H   63.430553   99.833969   39.122002
H   92.456573   14.342978   73.152184
H   31.082710   92.835587   74.595200
H   99.915031   78.482986    7.776553
H   89.070602   54.347244   83.625801
H   56.563000   57.775711   43.474491
H   42.139565   30.643456    2.776967
H   52.953327   22.953207   59.888435
H   43.085552   84.685928   17.298550
H   99.589287    1.509128   76.300423
H   34.554226   57.140869   50.972401
H   36.378784    8.342479   99.184227
H   58.368462   89.586639   51.883862
H    1.142236    6.160243   86.364136
H   80.365761   14.717086   32.248863
H   74.890045    4.689474   57.489731
H   68.136246   94.776192   46.332466
H   59.186043   93.502411   91.278221
H   41.907368   96.801041   41.988201
H   83.872169   71.545761   21.202881
H   85.406197   93.827431   17.986633
H   59.101433   74.769058   62.641171
H   72.816299   76.922501   59.817387
H   29.132038   41.062157    4.438835
H    1.443129   57.835651   59.590897
H   61.829185   64.058022   55.857838
H   58.883503   14.425224   80.223114
H   53.137840   52.893265   88.974609
H   29.632778   83.146484   89.466469
H   74.374222   50.438614    0.232969
H   11.932922   18.603935    6.393250
H   96.829140   65.943626   43.147881
H   54.298649   37.279057   60.711441
H   68.899315   95.897514   88.235626
H   17.072525    1.391766   98.204399
H   16.643169   54.538116   49.056580
H   52.062786   35.721531   85.282448
H    2.386423   78.957039   98.933006
H   29.437487   91.964798   42.120869
H   95.957489   83.764267   80.105492
H    1.119051    8.446698    6.971441
H   66.997993   30.641197   10.021600
H   57.306313   69.892235   60.400284
H   11.840984   31.610516   62.538559
H   71.821632   62.814125   12.460012
H   53.474388   20.226000   32.755379
H   81.424179   56.816628   78.635994
H   30.641405   59.994175   40.811577
H   71.981895    0.600951   61.416790
H   26.603540   51.173828   48.972885
H   73.847092    9.318395   87.556351
H   32.846615   80.765694   35.348007
H   51.835747    7.000610   55.315189
H   94.370117   56.468109   54.493744
H   81.667595   15.394074   88.730484
H   26.582056   86.257751   57.245331
H   20.076080   62.968266   37.532646
H   15.559650   23.151497   14.057393
