100
TIME:    6.260, STEP:  6260
H   93.984451   47.948235   93.414810
H   27.588753   44.084789   72.819496
H   87.368652   24.273151   49.861485
H   82.527328   74.738068   97.030273
H   39.100800   74.524033   95.971771
H   30.944439   94.426170   98.694725
H   24.884060   84.042885   79.993233
H   27.862640   30.171505   33.421490
H   99.745125   84.419846    6.041570
H    3.776979    6.268141   52.822056
H   17.965073   18.126974   36.754745
H   16.913277   37.471928   47.335106
H   44.603256   83.035576    2.996513
H   45.122749   85.780800   33.629009
H   56.639961   10.858765   49.858486
H   49.823181   64.206520   13.406157
H   20.715279   96.021858   43.260841
H   34.934254   90.227600   82.521034
H   42.767483   40.968727   93.163940
H   23.862434   72.872597   42.542503
H   92.799454   33.014652   87.335899
H   62.532639   52.394226   86.181473
H    2.162384   43.710045   53.244827
H   37.413609   11.716036   42.151516
H    5.691375   89.710190   82.771400
H   18.009710   41.598648    1.755472
H   22.271732   82.256790   24.174803
H    4.341668   48.635338   73.696762
H   47.288750   17.048279   61.258453
H   41.028736   35.904961   81.040848
H   62.427986   83.401695   14.107658
H   61.017460   79.553680   19.744469
H   11.302664   10.471193   61.747192
H   42.602150    0.031173    8.027952
H   25.162170   85.700233    5.913486
H   16.808828   75.738686   99.744759
H   80.214119   75.280396    1.728946
H    5.256393   44.393383   64.190987
H   80.836182   45.021111   37.671455
H   73.570770   26.142807   30.557844
H    7.425361   70.976997   89.828590
H   72.655243   66.151733   99.544487
H   65.160858    1.039682   53.639725
H   79.621109   17.716696   92.805626
H   13.647488   84.904282   91.795029
H   97.320335   82.316757    8.593145
H   90.640915   65.278091   85.554955
H   56.573734   59.845947   55.911243
H   48.014435   13.997223   94.759415
H   57.171185   26.013136   45.833000
H   43.071751   65.280914   19.417091
H    9.357321   82.858383   63.106117
H   38.723835   58.306335   39.297802
H   31.724586    5.062688    8.053355
H   42.364769    7.200984   53.593723
H    1.392582    5.948811   79.521622
H   93.109215    8.916974   51.365578
H   59.923004   85.707558   52.312607
H   83.989655    3.269202   30.902306
H   45.922729    8.951779   85.561302
H   54.586414   87.452774   26.317280
H   76.738289   69.674881   12.107808
H   99.051353   80.111732    4.203461
H   72.903549   75.863983   57.183414
H   80.793610   60.869434   78.535393
H   16.784996   31.069817   16.323896
H   85.316696   64.784149   69.294937
H   47.944801   75.553200   65.466797
H   68.901161   99.982666   67.617676
H   57.209305   63.003685   88.551361
H   23.249550   69.470657   87.055794
H   57.800640   43.767853   14.949306
H   98.826950    8.662201    1.239180
H   92.403435   53.222942   31.204969
H   63.988888   37.565823   75.948380
H   73.650124    8.779621   74.710083
H   35.324795   83.981834    1.763540
H   26.086514   41.394417   60.157646
H   61.700886   35.131130   87.524437
H   92.529160   68.007790   81.616631
H   33.370934   94.044235   54.134373
H   11.042875   85.067886   63.291821
H   13.833268   11.807765   26.114044
H   80.827171   47.841087   91.663139
H   47.519463   57.319717   40.915527
H    7.214423   38.994316   76.496552
H   85.245964   48.199791   22.044439
H   56.707024    4.141798   30.671341
H   85.595322   45.625084   76.992073
H   12.870276   51.723965   47.996063
H   80.207634   11.454254   65.661545
H   41.475506   66.291153   52.802055
H   86.731628   15.349683    3.099986
H   52.271564   92.960152   48.901154
H   48.360817   88.996689   59.934116
H   10.971969   48.530670   44.111893
H   65.712975   26.928377   77.170898
H   26.194078   96.204086   53.210670
H   10.501075   63.834698   20.696259
H   28.043955   17.993542   94.694420
