200
TIME:    0.006, STEP:     6
H    2.280812   63.251591   11.338322
H   25.878633   29.461704   80.397713
H   23.042297   58.896011   33.822441
H    9.954871   74.238716   50.618736
H   17.694733   77.798553   57.022858
H   97.231018   59.166122   72.476311
H   99.969040   55.470161   45.122112
H   97.645012   78.781708   33.378338
H   77.925438   91.014297   53.427845
H   19.098476   78.176659    5.302017
H    4.037409   89.595406   85.567047
H   29.810181   35.777046    1.592596
H    5.430934   79.241920   70.882195
H   15.464375   52.219677   30.989986
H   30.919558   70.143242   43.554344
H   36.121044   35.607761   59.370880
H   73.199387   96.759048   26.793114
H   42.118858   71.917999   47.686314
H   57.239826   38.173183   39.039139
H   89.311790   82.918175   46.541721
H   55.276833   65.077179   36.561069
H   95.238472   39.870125   79.592133
H    2.012574   64.242828   54.750908
H    3.691985   85.992012   92.333580
H   93.075691    3.292655   53.760098
H   18.854795   51.952206   14.685019
H   94.364723   54.101475   39.673447
H   89.140167   60.476105    0.115560
H    1.213038   63.642281   39.708565
H    3.623842   14.495787    6.720080
H   13.666998   41.673069   15.908722
H   36.181263   58.021957   87.842033
H   32.777275    3.950384   70.320923
H    4.171570   63.322624   34.200226
H   59.217838   99.470078   35.999012
H   40.704926   55.257256   76.793205
H   79.548248   79.479553   84.198219
H   44.489758   38.702328   25.688534
H   61.730637   54.779819   39.230225
H   92.326843   40.650753   72.837006
H   80.436966   16.160015   93.757408
H    1.692205   48.013725   46.769623
H   80.915115   93.157402   41.639332
H   37.802567   51.869766   10.379397
H   20.782084   69.155823   35.919548
H   44.352737   19.928448   40.142963
H   75.564514   37.676346   91.048119
H   95.812645   65.554176   56.059891
H   78.030792   37.632137   60.997623
H   70.490555   16.745512   15.612438
H   83.774734   73.457893   37.142361
H   30.083254   31.670391   58.509834
H   45.866699    1.118713    4.866807
H   25.889225   77.245621   78.237938
H   87.103622   81.589020   98.341148
H    8.305368   78.114723   70.985809
H    6.098289   15.859999   52.164692
H   64.852158   53.139652    9.526891
H   33.118694   69.957138    1.466933
H   48.515362   97.303139   71.319962
H   51.177368   19.941809   49.073227
H   85.732361   15.870605   47.272869
H   65.000671   20.358992   92.779419
H   18.456440   64.818489   98.443230
H   67.586792   72.590637    8.360779
H   47.918709    7.470244   28.657181
H   94.915871   28.097836   81.000587
H   98.651817   90.917915   82.638756
H    8.199282    2.691073   64.941582
H   46.583958   37.551517   50.995090
H   58.567818   72.544907   67.022156
H   38.716564   29.972563   46.402821
H   70.067032   21.617657    7.330927
H    0.241975   14.108079   53.760899
H   76.295731   97.083321   78.615387
H   47.399132   27.337978   64.406326
H   96.416626   21.238932   75.455482
H   35.222157    1.708897   55.969154
H    9.751530   19.267847   40.121120
H   71.802017   91.971985    5.359043
H   33.436596   34.056656    4.606993
H   16.347454   72.798149   95.091179
H   11.912660   11.099517   97.126259
H   32.304775   54.207893   86.224823
H   47.241005   96.849457   64.413559
H   18.074627   93.961609   32.653954
H   25.367601    2.296505    1.234875
H   77.277443   27.253378    2.616279
H   58.530067   71.468666   76.314751
H   24.616165   75.558647   57.439877
H   51.051468   32.872753   81.795303
H   85.685387   86.482391   93.261948
H   36.143658   19.501186    2.394174
H   70.521393    2.840524   62.679638
H   19.195545   60.091499   58.193947
H   78.962563   22.477539   40.063580
H   76.131371   22.372732   88.251328
H   13.327497   24.802544   46.378040
H   42.320183   72.122101   52.051987
H   63.135784   94.124741   27.193277
H   99.426086   73.956543   57.920563
H   81.870857   73.116364   67.155357
H   18.328794   45.721436   27.232658
H   10.631773   67.507446   80.869995
H   25.648979   30.547882   17.500944
H   78.159294   38.229702   54.846130
H   54.573513   27.191240   57.348251
H   66.129433   25.289963   27.789843
H   66.849800   43.043396   87.817497
H   96.850220   31.322985    4.392008
H   44.115829   98.100212    0.631215
H   76.598038   57.460129   87.845741
H   61.158226   77.559250   99.025200
H   64.016838   24.442097   80.988220
H   71.659065   72.224518   34.977512
H   23.587994   12.642962   68.378036
H   42.195805    5.147659   81.452194
H   41.958324   15.478757   38.655937
H    9.975673   48.928257   95.104691
H   64.607353   42.004574   40.613640
H   38.112312   20.204456   95.187599
H   28.385738   33.023319   41.305023
H   26.594816   31.691586   17.087542
H    7.524907   75.739983   28.112255
H   83.915337   14.740416    0.552355
H   39.149441   55.949528   30.049479
H    1.202905   48.097336   80.091843
H   80.547066   85.734703   33.026272
H   89.588066   60.953922   90.222893
H   56.403320   25.258450   62.515083
H   39.163048   93.540802   94.468903
H   90.681740   83.730515    3.808775
H   93.201851   71.210014   95.634506
H   12.394790    7.003305   46.826546
H   92.866364    5.601149   67.169617
H   68.590485    1.927168   87.128975
H   68.505310   85.968239   43.689720
H   89.222404   71.526283   86.895683
H   40.196869   41.061218   71.605431
H   43.321190   20.312944    1.959728
H   39.032986   69.950790    7.351298
H   68.010666   33.900955   40.791973
H   62.527771   52.454006    7.276777
H   68.435463   34.998238   74.246803
H   29.302837   77.527679   41.416843
H   37.366333   57.943680   41.053253
H   39.196892   97.802544   48.957378
H   49.041954   82.129066   70.167503
H   58.929661   74.561325    0.270731
H    1.962652   86.055420   98.740013
H   84.468208   57.335918   53.110729
H   23.937460   13.584444   55.485359
H   65.305191   40.588238   11.679497
H    3.724128   95.770996   81.735039
H    4.333509   47.699299   56.519424
H   56.555580   42.948689   46.861824
H   56.861858   53.866550   77.985031
H   42.719200   40.414337    4.241913
H   23.091612    2.616036   11.282554
H   66.302361   66.491486   69.261124
H   51.657402   93.915993   89.637581
H   54.590710   24.268951   37.571159
H   55.146816   44.771919   37.329350
H    2.685473   13.305359   81.210632
H   61.194710   14.148335    7.525330
H    7.882088   71.883858   63.580975
H   78.929207    1.351508   49.741055
H   23.427799   20.286057   38.336506
H   90.893379   28.931185   37.409477
H   15.794312   12.225577   93.038422
H   83.835327    2.851017   35.995712
H   54.246681   74.137848   56.739540
H   33.151726   87.508926   97.008133
H   74.102196   80.153625   68.823868
H   82.313782   96.796829   10.233336
H   93.682404   46.396873   23.062246
H   37.821621   45.611328   77.119286
H   99.656013    8.977699   61.888073
H   81.585823   26.819307   71.871674
H   97.431740   51.945000   83.084023
H   85.689987   76.803963   47.159935
H   14.507908   29.820400   61.073612
H   76.407516   90.408554    1.438714
H   46.385735   24.786963   68.581673
H   82.496918   98.483688   79.360886
H   94.361626   34.249252   82.783058
H   23.204462    8.532837   94.080704
H    1.662921   57.313290   17.338814
H   13.394848   60.129910   63.869064
H   45.358360   59.546215   62.746601
H   36.641750   38.766205   80.972481
H   49.571198   78.570038   27.604910
H   98.902946   11.957080   52.445915
H   39.191853   54.191399   28.597187
H   92.924789   64.707191   22.581722
H   74.756851    9.809256   32.772392
H    7.905863   79.178825   95.568680
H   35.710304    2.056520   53.565994
H   15.033753   10.957144   88.482368
H   10.448435   42.920269    0.999959
