100
TIME:    1.245, STEP:  1245
H   33.127602    7.848503   98.006180
H   66.638298   72.248207   56.534451
H    1.155641   63.474300    8.721527
H   81.685577   81.355614   71.921745
H   84.019699   72.549767   31.947334
H    8.710438   99.859291    2.041698
H   87.719933   45.406612   87.813393
H   22.031754   96.310867   93.881844
H   23.023521   66.591705   21.718390
H   40.816643   34.259712   56.444748
H   84.448166   16.337498   19.825109
H    8.320667   86.096245    4.309000
H   64.066422   86.383034    1.386512
H   93.436836    1.238705   51.985958
H   95.643913   58.816364   90.926102
H   51.465775    2.838977   29.694809
H   23.970757   64.330826   86.709892
H   27.749352   34.156448   56.384567
H   64.651253   30.582666   28.954004
H   58.973671   79.375107    1.098064
H   90.396576   32.273781   23.453182
H   81.726494   45.743195   13.245214
H   69.121483   84.496712   96.728333
H    3.367537   51.613560   14.609312
H   85.056023   87.435402   45.748238
H   40.950329   90.512299   72.478302
H   54.721725   90.723770   24.671873
H   27.491974   14.552030    7.925161
H   38.242401   62.048069   98.321281
H   48.731747   60.026199   82.362755
H   65.076515   33.689957   10.893681
H   44.367161   18.115494   84.008202
H   58.054852   77.392311    9.956388
H   30.706093   59.625893   19.301390
H   49.825401   64.807686    0.541612
H   80.802551   82.285172   16.360464
H   99.211113   58.941750    6.566457
H   12.533997   36.167118   10.298342
H   94.749222   53.930916   22.799301
H   45.928093   95.630150   35.987957
H   50.158501   98.902092   71.676193
H   19.727684   67.735832   61.292301
H   21.964750   70.965836   91.401070
H   99.858269   33.635956    2.463901
H   48.660568   82.769028   62.648148
H   62.025272   86.663246   88.227058
H   49.226124   92.900848   38.261665
H   56.305904    8.201857   45.611462
H    1.425136   29.338387   94.809891
H   52.001423   49.699093   96.588707
H   43.449635   49.447029   66.543945
H   65.637550   48.212673   92.329361
H   34.705498   29.227661   30.561626
H   47.859837   86.891869   86.755508
H   41.645866   67.649170   10.970806
H   95.124008   11.223511   50.244064
H   75.178543   53.623100   74.397270
H   33.352966   59.312874   81.486771
H   88.467674   91.372330   15.903645
H   76.860947   23.482504   28.198814
H   38.236675   20.673965   17.326286
H   54.723663   16.357071   39.022903
H   58.681534   22.253963   48.146339
H   28.530794   48.566978   93.337425
H   81.738960   61.409077   11.505254
H   24.862831   80.380470   19.799467
H   87.679581   91.405945   27.171505
H   94.364967   88.739548   25.720800
H   18.952110   60.328568   82.148476
H   55.605759   10.762453   99.111511
H   82.497490   10.690905   47.215611
H   71.310379   10.206293   47.775154
H   25.815769   56.722050   29.824963
H    2.788633   70.594681   29.214546
H   22.198734   30.415186   95.776909
H   55.093784   87.365623   12.157374
H   79.993279   18.638441   13.063871
H   90.472687   69.314445   83.196899
H   21.228296   49.855320   31.570652
H   38.468460   41.148949   13.663230
H   35.245640   42.161755   54.399151
H   34.736347   52.358353   82.671097
H   96.572517   28.036520   48.479923
H   35.814938   18.697855   49.713020
H   91.707809   71.009659   27.063560
H   22.636814   54.787174   28.239983
H   50.305458   12.831291   82.909439
H   75.997208    5.616970   82.800713
H   81.519478   24.852335   18.013859
H   56.263474   58.054420   68.721489
H   74.973061   40.657963   59.753857
H   70.404350   89.142281   57.243195
H   65.165535   64.933151   15.231356
H   67.562599   88.751228   10.763028
H   35.067829   38.210358   44.694725
H   96.753448   46.566948    3.142928
H   63.780075   39.128323   65.587997
H   11.436364   26.838104   36.116508
H   49.403038   42.216999   40.763020
H   16.560135   46.724918   77.774483
