100
TIME:    4.496, STEP:  4496
H   13.276356    9.715219   95.029800
H   76.307014   48.496323   61.594315
H   57.036842   97.364769   70.569466
H   82.231247   47.415581   93.721565
H   54.900787   33.131729   43.798965
H   58.305065   96.337242   23.999846
H   17.335369   64.930466   42.046062
H   66.509560   77.562653   95.385628
H   43.107674   54.021347   17.079424
H   51.976189   80.939262   83.748352
H   82.048065   47.148762    6.672371
H   84.240868   49.051811   72.898964
H   57.168045   89.707710   78.276855
H   32.464928   91.217934   99.386673
H   35.189705   68.426575   34.653400
H   20.750000   18.492607   59.833923
H   62.565559   79.345749   82.676964
H   97.212929   76.056786   43.671825
H   15.295097   66.967987    0.230379
H   71.385612   10.338495   22.441172
H   97.477715    8.625759   35.214943
H   93.416245   50.052490   36.402328
H   25.715950   58.056541    3.713523
H    1.314362   90.604126   73.161636
H   68.781403   29.604279   69.743813
H   26.051016   93.741699   67.634041
H   74.384422   55.585201   89.175209
H   53.181797   66.297791   15.384429
H    8.932111   57.004177   44.643349
H   73.389999   79.563530   40.807320
H   93.000587   25.220829   53.669731
H   49.637341   28.292480   83.046822
H   87.049538   39.533134    2.832142
H   68.068176   61.691162   82.342247
H   69.012772   19.057152   98.504501
H   63.467213   37.575001    5.292914
H   11.024252   39.883286   62.732533
H   78.163307   76.674446   39.711376
H   55.296642   83.457878    8.616697
H   39.720497   91.282646   91.770203
H   27.981564   10.453687   48.269512
H   27.546280   13.640300   14.027399
H   49.967518   90.461121   26.224977
H   92.259415   88.117523   20.330145
H   66.659966   54.500557   40.845844
H   20.083126   48.671131    1.424564
H   76.859665   69.345543   68.624474
H   56.479527   41.677307   46.764915
H   96.454697   60.089931   65.129059
H   20.172207   99.163765   69.207130
H   43.201603   35.584084    0.821770
H   23.629328   46.544399   78.908264
H    2.131896   48.078064   41.748669
H   72.573204   33.848610   30.211666
H   82.816528   52.607197   38.587772
H   99.191727    7.804367   39.572357
H   81.278366   59.816551   83.594398
H   91.274307   52.296074   97.747665
H   44.866104   28.736492   66.323891
H   62.327770   73.366272   35.733650
H   43.312134   69.485741   63.851067
H   39.342796   86.093948   91.923828
H   79.294411    0.483706   25.166252
H   51.772484   66.254791    5.071217
H   10.775590    1.755503   14.261928
H   25.148567   18.763191   12.022027
H   26.846327    3.802082   84.128708
H   69.796257   74.668106   81.137398
H   80.982559   26.732437   78.251831
H   21.475664   74.279297   92.265839
H   79.263847   89.491791    8.214256
H    3.251897    2.311327   85.798088
H   13.843679   95.916969   46.472313
H   31.234890   64.865196   36.016441
H   78.940804   35.049129   42.225674
H   31.946115   95.723839   93.406052
H   75.163193   36.862888   70.562843
H   43.210583   56.739117   62.738785
H   77.111610   40.312557   67.848473
H   79.032806   64.093681   33.586723
H   98.852158   75.794846   48.703991
H   78.665840   73.589859   10.824594
H    2.255451   82.308289   58.121082
H   59.466476   96.891182   52.776100
H   33.412033   67.658638   11.915563
H   47.817936   74.201515   53.999130
H   67.432396   76.457092   37.930237
H   28.325167   45.333504   48.986610
H   48.988876   43.841728   91.419319
H   68.832626   24.297646   84.938171
H    8.017570   16.203300   28.409098
H   10.955825   33.622711   19.195955
H   73.655861   62.420883   66.687119
H   81.783432   85.948624   29.961199
H   78.857216   47.005867   19.399952
H   65.272751   18.189453   35.224846
H    5.731332   25.696667   78.619736
H   23.369055   54.518433   84.090950
H   94.534180   56.230785   68.450706
H   18.475435   63.255726   64.627243
