100
TIME:    6.008, STEP:  6008
H   11.026106   71.057976   93.645523
H   34.547981   30.428511   56.930210
H   83.035095    6.143923   52.820377
H   82.485031   85.120148   10.843387
H   41.357941   54.325119    2.804486
H   34.853100   94.699181   73.739281
H   38.090969   67.027809   60.286503
H   47.669342    8.370891   56.560070
H    5.939827    8.648704   21.904345
H   10.660875    2.649554   42.955235
H   41.405502    7.987522   61.027664
H   26.532082   24.840397   65.273033
H   60.683945   98.274162   28.036552
H   57.600471   86.557533   14.451000
H   53.577522   33.368362   61.975048
H   59.955322   86.247292   34.324921
H   40.979561   79.352852   20.320288
H   29.545187    2.489777   91.257362
H   38.843441   30.396311   79.886414
H   30.651161   78.225136   25.385157
H    7.753471   58.102757   94.176537
H   38.373154   52.059692    7.641545
H    5.527253   45.759544   60.454605
H   60.829044    8.701387   60.868099
H   14.704078    9.694710   80.910316
H   19.158468   49.048752   25.452507
H   44.002533   92.731155   19.174101
H   25.604481   36.872826   65.368027
H   41.809319   94.185028   73.170929
H   31.365776   42.141899   61.007278
H   52.509254   60.803638   34.045097
H   45.105961   86.517365   43.073387
H   93.552238   28.908037   39.045044
H   31.954746   23.125267   18.643629
H   31.429554    4.760490   90.574005
H   94.903107   56.001198    0.537138
H   56.043732   84.508911   81.872292
H   15.671638   49.005718   46.408772
H   91.472046   50.512077   62.092415
H   97.307281   49.734882   10.730955
H   24.647125   62.329483   83.891579
H   93.892365   65.163513   86.678398
H   62.991261   99.528137   35.438400
H   95.713333   13.486959   68.165489
H   35.506420   94.848007   70.231064
H    0.573186   77.510239    7.569357
H   88.672165   51.573746   83.136314
H   56.560276   57.250427   40.318897
H   40.648926   34.867126    4.811454
H   51.883694   22.176954   63.455307
H   43.089054   89.609589   16.761009
H   97.110725    6.241593   79.648232
H   33.496265   56.845154   53.934612
H   37.559700    9.174664   96.933678
H   62.429100   85.117447   51.450016
H    1.078716    6.213890   88.100296
H   77.132347   16.188744   27.398354
H   78.687653    9.505903   58.803329
H   64.113739   92.621361   50.247581
H   62.551361   89.582626   92.728783
H   38.690296   99.172989   45.964405
H   85.682259   72.020462   23.510628
H   81.943993   97.307533   21.483856
H   55.599152   74.491241   64.025970
H   70.792206   80.995590   55.068043
H   32.264885   43.597527    1.423222
H    5.535056   56.072643   57.128677
H   65.352089   61.141331   53.419743
H   56.341518   18.089760   83.421509
H   52.104782   50.327934   89.082001
H   31.252403   86.616470   90.078133
H   78.579605   52.131195   96.499161
H   15.258358   21.126465    7.701012
H   97.952080   69.171593   46.178185
H   51.839931   37.206295   56.845352
H   67.693886   92.629082   91.667480
H   12.442050    5.812140   97.302467
H   14.247096   57.873085   46.239891
H   49.617298   35.871334   84.713585
H    4.887422   81.735207    3.326661
H   28.439447   91.437180   39.072666
H   92.129532   83.433533   84.371574
H   97.893303    7.593867    2.114404
H   63.489151   26.276867   14.679603
H   59.789543   73.082069   65.344177
H   13.014896   29.737198   58.996979
H   68.415459   66.522240   10.028143
H   52.654167   24.307066   33.284164
H   80.365829   59.656273   79.053108
H   35.150616   62.092587   38.988647
H   69.894768   97.846954   60.339764
H   22.830057   47.338089   48.001305
H   70.577881    7.788068   83.612442
H   27.917736   77.671577   31.909151
H   52.717445   11.569012   54.143223
H   90.157730   58.482086   57.127945
H   85.715782   12.467368   91.663513
H   26.680498   83.734055   58.269051
H   22.505615   62.748425   41.804565
H   12.391897   24.460232   18.970509
