100
TIME:    4.822, STEP:  4822
H   91.230629   79.819405   94.731339
H   67.303413   66.162476   82.148682
H   62.640465   20.817822   66.744179
H   82.285965   33.984795   75.853645
H   51.980835   59.262070   34.959518
H   53.248623   95.984062   56.285656
H    0.250103   86.942032   67.539688
H   40.886604    5.766884   65.454872
H   35.093971   22.677872   96.558647
H   43.067101   85.620140   96.512573
H   51.724335   60.266163   75.269485
H   71.799980   65.392601   49.693550
H   36.365250   69.994301   45.883789
H   16.324322   90.213112   24.196230
H   39.154274   39.306641   18.982697
H    7.641313   89.979202   32.773376
H   36.350655    0.909545   12.354033
H    4.183232   60.194134   32.370068
H   20.372681   80.642517   17.404482
H   62.601280    3.415422   44.636787
H   78.132408   76.172394   26.367241
H   24.670181   50.485260    8.640396
H   21.363380   55.405205   94.386337
H   71.025436   94.513397   48.949852
H   57.121490    3.750015   72.151405
H   24.564924   84.106354   36.979221
H   46.272713   42.032543   95.641884
H   25.675758   81.514374   26.161356
H   16.021202   86.581749   29.232990
H   85.890579   71.495110   66.723763
H    5.830284   54.452976   27.877647
H   70.221260   19.286392   52.867348
H   10.012018   15.681906   32.200798
H   81.842194   31.815125   68.608025
H   60.909531   94.413742   18.354904
H   91.806168   63.108418    4.267262
H   42.291458   27.944386   88.420151
H   64.687752   70.710182   62.715328
H   41.535061   76.354485   77.024780
H    9.015295   60.764648   17.418879
H    5.702593   21.638548   55.949932
H   98.246574   28.271345   29.341311
H   52.775547   92.416046   49.771439
H   71.441696   93.579956   52.205315
H   38.382954   41.639336   68.742088
H   15.877281   54.889088    2.749800
H   79.406540   87.074181   71.753349
H   56.496937   45.035004   66.935966
H    5.984202   33.091564   52.123795
H   27.009472    4.125273   46.406563
H   43.176731    4.110172    4.258435
H   39.472023   16.293444   57.507790
H    8.894151   49.968323   22.814352
H   65.022118   28.528526   44.597374
H   56.860291   81.178963   41.360981
H   99.599625    7.461447   28.474548
H    1.946676   50.410027   14.599894
H   66.999405   21.509302   89.350937
H   70.576744   42.510803   41.295601
H   40.816128   98.422150   26.461433
H   63.876160   54.325466   38.434547
H   27.772879   83.059586   77.174835
H    1.425447   78.238327    2.811446
H   74.158485   68.030640   96.220398
H   23.715158   75.719574   44.621204
H    5.122810    2.557211   31.297598
H    0.689938   15.072244   99.867599
H   47.277306   93.312027   96.722084
H   97.228836    3.308156   57.806435
H   28.080378   90.674805   91.579376
H   68.912193   67.311096    4.303456
H   76.370636   91.492004    9.665622
H   92.587494   79.790077   38.112892
H   24.057690   44.234119   16.646660
H   94.659798   35.514233   66.938324
H   39.653893   16.617281   71.469101
H    4.760897    8.607037   76.328133
H   58.526653   35.421474   80.741188
H   92.746040   39.354992   71.484734
H   63.045197   46.337696    5.501662
H    5.231056   79.167465   68.188576
H    3.125047   75.718887   83.564598
H   22.876596   87.760193   89.166565
H   81.895386   24.788176   23.002037
H   17.537699   47.266670   80.313637
H   40.314106   86.174812   76.637466
H   89.205193   52.754242   53.475128
H   33.572250   19.233618   45.596581
H   55.754013   25.690702   88.753059
H   40.009083   10.884270   96.593109
H   21.358818   33.806210   35.293621
H   35.078068   58.139664   25.407293
H   94.553169   72.205055   91.897202
H   13.291909    5.722144   51.940548
H   73.221260   17.803856   26.890102
H   92.198990    5.316587   18.386620
H   79.854820   44.405254   59.871353
H   24.565390   57.294128   78.872841
H   79.004211   57.636044   41.144333
H   38.723591   54.891331   33.221638
