200
TIME:    0.576, STEP:   576
H   19.795759   61.359882   21.084969
H   30.959066   37.783379    3.537556
H   11.095405   83.844818   61.898003
H   29.168587   80.901009   35.713379
H   11.642745   92.245117   48.827629
H   78.687927   43.695427   55.604225
H    8.227263   55.065727   56.154903
H   10.418199    3.395381   13.145833
H    1.073799   82.468994   39.522701
H   99.033401   70.192345   82.819283
H   23.905024    1.771829    3.579583
H   32.167206   50.991165   28.751894
H   19.420879   98.159004   47.520683
H   88.522591   54.624538   58.456722
H    3.399756   74.531136   42.151871
H   19.506626   12.122311   47.074776
H    0.013809   23.455040   99.118690
H   28.583633   99.319504   37.538494
H   76.204742   17.537579   47.430061
H   91.125221   75.090416   24.445698
H   62.117424   93.531082   10.446913
H   82.548805   61.657387   57.626572
H   84.943565   60.098465   41.074074
H   15.725083   91.122536   90.532494
H   17.850815   26.217413   33.420971
H   18.382956   77.247879   95.859261
H    5.402563   65.538704   62.591385
H    2.221418   83.990150    1.615384
H   25.220264   46.316841   36.370895
H   77.865952   29.765352   87.003098
H   12.922817   65.486855   16.605610
H   25.816006   71.381332    1.875557
H   19.004768   16.215494   77.283279
H   85.306190   63.944496   44.163223
H   31.864164   75.917221   31.663218
H   22.085732   42.261002   83.329384
H   95.908264   67.176926   88.477394
H   16.295212   53.446781    0.060214
H   40.634827   34.368938   51.900322
H   86.860458   38.306774   50.571381
H   80.604286   89.527817   12.676913
H   30.063433   36.061172   29.868050
H   70.652054   80.063301   62.804722
H   36.532730   79.552986   30.765272
H   40.257355   86.546494   56.489159
H   36.331459    5.094158   46.342113
H   86.305939    9.750694    3.545892
H   81.935768   65.545479   35.568558
H    0.074631   16.001431   61.408581
H   50.093410   19.317801   91.497620
H   70.215317   66.243309   14.552789
H    8.294010   41.481182   70.765602
H   61.238632   84.811302   12.320555
H   17.405891   89.274277   86.678871
H   62.976730   68.912399   79.906776
H    0.998373   64.072594   89.650665
H    4.471583   18.016945   46.050343
H   71.079575   66.390305   99.238945
H   21.091227   80.968185   15.253026
H   35.332111   94.102455   60.782928
H   49.331322    8.820955   32.419670
H   95.975090   17.220842   51.641823
H   80.704025   32.166931   73.549225
H   32.267021   65.631706   11.169426
H   76.749619   81.088104   31.669195
H   25.559271   29.614988   38.902847
H   73.624367   16.074615   92.777016
H   95.459831   92.213844   93.923775
H   28.474054   10.393806   57.726997
H   43.302822   47.486248   50.964649
H   58.317764   82.403534   82.268890
H   22.697292   14.990052   42.412838
H   88.157852   31.471935   88.244659
H   18.811811    1.579179   70.354408
H   83.236343    6.310637   51.814011
H   61.806557    7.214342   60.681854
H   94.007416   42.458679   67.392891
H   14.110252   12.088316   36.478035
H   14.085064   44.662945   27.496685
H   63.213024   88.793045   78.327057
H   57.628719   24.423307   96.145355
H   41.410824   62.547825   77.470024
H    9.688815   17.351938   80.448784
H   13.717127   72.846657    4.802516
H   26.943192    2.876901   48.260162
H   34.133347   74.018219   20.788376
H   50.914360    3.484259    2.541636
H   72.537300    6.038809   24.115376
H   75.970047   72.875046   78.380859
H   21.761208    1.107650   51.168972
H   27.158020   37.793369   79.259979
H   81.714973   91.483459    5.699273
H   63.221180   13.072639   86.160370
H   44.961033   82.362236   78.330620
H   33.638725   52.381157   81.933800
H   55.357521   35.221565   13.263661
H   83.863457    2.657587   12.799837
H   97.658012   33.659668   51.774845
H   29.404381   66.412186   54.071983
H   73.046593    3.387082   27.332438
H   24.857328   89.716431   84.761574
H    3.066460   81.739944   64.011208
H   30.144361   24.890528   35.198055
H   38.021080   68.559845    3.505447
H   24.893335   23.057144   35.981030
H    0.725024   10.322412   28.159838
H   81.574928   34.268841   54.695511
H   62.771397   47.175072    5.749040
H   81.335503   35.848381   15.379902
H   15.160251   23.375635    7.181735
H   51.615257   93.146980    1.032251
H   99.485535   71.794617   94.338432
H   51.258286   84.173706   86.626900
H   62.085991   12.153603   66.289429
H   52.637611   95.960022   14.991534
H    0.326158   95.968208   94.092224
H   18.760365   13.173926   88.097092
H   39.066402   43.534748   27.262199
H   31.622686   70.328476   66.933456
H   79.649696   53.380917   61.876877
H   44.061409   23.992222   76.509697
H    3.791402   19.520435   58.071648
H   40.336983    7.651480   33.996716
H   99.126923   55.227837    3.151262
H   66.862419    0.632864   81.700462
H   60.032162   71.545288   19.043867
H   87.034828   50.758774   58.078445
H   68.079185   90.205223   37.840343
H   96.602608   40.321255   77.233162
H   84.030960   22.556786   72.225853
H   62.172310   73.188629   16.251797
H   68.803154   89.383896   17.250690
H   91.340584   98.942024   99.874542
H   84.445099   21.617702   53.842571
H   21.024784   95.294708   40.977066
H   53.408981    1.195626   78.731529
H   69.448990   87.420723   72.065346
H   94.084312   53.729923   77.889412
H   55.095703   49.032486   71.470619
H   43.629951   92.975365   86.121307
H   67.252060   53.187744   25.763672
H   41.770279   51.219872   54.079594
H   44.204292   62.945377   88.051117
H   42.316841   14.365089   83.692299
H   56.095516   58.623642   60.055607
H   58.251228   67.764511   13.753944
H   52.678032   95.306358   44.876072
H   33.477760   60.911491   66.897240
H   74.167694   50.763725   94.604248
H   20.172630   92.343132   77.423080
H   64.376961   67.016251   48.807636
H   47.931351   97.812553   37.622849
H   91.784760   19.274990   91.669693
H   18.791916    8.855143   67.649422
H   26.936207   62.752514   66.831902
H   73.476585   44.362034   64.398224
H   62.828350   70.960220   84.734299
H   50.823105   31.268906   17.595928
H   97.003685    0.468303   90.144051
H   59.912647   43.234344   91.135361
H   57.256424   70.758873   74.482170
H   27.828302   21.315060   32.633148
H   79.682487   19.920429   37.092342
H   23.608084   30.050327   56.823456
H   55.737022   33.489426   13.125982
H   17.702667   53.748318   60.465092
H   69.114067   92.132393   55.783649
H   23.925732   46.219856   61.906757
H   98.638512   27.077528   36.063538
H   41.806389    7.924115   86.619659
H   72.946045    9.629638   35.947876
H   34.555519   52.966972   58.489914
H   44.164948   63.016651   80.969925
H   67.088486   66.501152   82.034805
H   55.821167   92.508957   83.432716
H   11.281148   49.475792   23.609102
H   31.966022   63.417305    0.963425
H    4.707900    9.521294   69.176590
H   67.008797   13.568551   65.205032
H   70.317253   58.059349   91.124870
H   75.283417   97.230064   33.907104
H   26.004858   30.516201   81.882401
H   50.164745   89.813629   12.723465
H   58.798080   25.842129   89.551369
H   89.868057   73.761017   77.012558
H    6.294463   39.058975   85.635841
H   43.051697   98.769234    6.710104
H   74.278839   81.456978   37.283577
H   96.887856   62.671757   70.383499
H   55.723618   56.445553   69.948135
H   63.871479   19.907829   76.902046
H   44.898460   94.060303   20.344664
H   11.563796   25.517586   65.503304
H   29.233507   76.940674   40.084705
H   73.364090   39.247463   20.717194
H   76.148453   11.207924   24.963009
H   11.694709   94.721275   14.807599
H   19.144567   90.728325   37.490822
H    7.432673   12.552050   62.989967
H    4.503304   23.609150   93.080704
