100
TIME:    7.951, STEP:  7951
H   79.628654   92.876701   91.866653
H   80.889633   35.717274   79.441788
H   16.441339   45.930389   30.007023
H   82.811157    5.068520    4.340569
H   23.951239   10.064961   50.120529
H    4.717471   92.594185   66.161110
H   36.258373   98.226334   12.231724
H   94.953369   76.463982   78.159737
H   58.177116   21.836876   99.599335
H   57.589790   30.549578   19.033260
H   60.672379   86.168457   73.868332
H   52.375267   22.232906   26.967823
H   36.740929   80.722137   34.958599
H   61.395149   80.568672   62.315907
H   77.178841   59.810318   68.536407
H   81.830399   16.305603   73.038361
H   84.734840    7.868462   97.199249
H   71.094086    7.943385   23.905434
H   69.101547   11.906285   82.251205
H   78.301773   36.965076   57.673653
H   92.453117   64.671082   41.439396
H   24.650454   54.639053   42.177170
H   79.584892   29.958212    4.862054
H   80.295761   31.945284   16.563118
H   45.210396   55.607040   95.259865
H   10.117748   91.707993   42.658081
H   76.455902   11.962577   57.731098
H   61.658440   27.565496   29.589556
H   84.057472   70.468948   81.324394
H    5.870358   94.051895   15.470337
H   28.976774   35.037399   80.321266
H   67.788292   32.833759   63.200172
H   30.414312   86.749687   14.085828
H   14.050225   45.060951   36.787521
H   83.077171   57.667747    8.796419
H   63.804508    8.185159   94.429420
H   42.403263   13.352182   34.972927
H   35.363098   13.443417   83.521263
H    9.456592    8.179152   73.801460
H   14.298470   67.838150   63.603905
H   91.857452   29.000807   29.666594
H   30.147072   72.783005   85.872734
H   79.713531   11.183531   75.781868
H   71.644440   46.099571   58.141232
H   66.964470   18.187588   36.498932
H   75.491325   14.567431   15.463091
H    3.854199   57.240730    1.785944
H   56.672909   77.262711   60.540371
H   97.448067   73.947701   27.304817
H   92.673096   51.752743   27.598110
H   42.955639    2.025396   37.242142
H   91.546783   25.944689   52.103271
H   73.798882   68.111328   41.089973
H   92.566681   77.477905   82.672440
H    7.724136   55.393219   67.975113
H    3.498720    4.170043   21.955994
H    0.311819   60.123711   12.193793
H   34.007492   26.013727    8.754891
H   17.352619   74.727028    1.087505
H   34.334709   38.928783   37.465233
H   61.255871    8.813860   94.474007
H   16.721413   53.935287   35.596603
H   13.853522   64.721100   88.246521
H   89.020744   85.075516   11.267999
H   47.912529   25.810823   36.011353
H   12.905880   47.005516   16.309528
H   49.645111   23.249634   50.936810
H   31.135933   72.263420   46.306381
H   53.180138   78.478188   61.561317
H   91.505424   48.001530   84.979660
H   69.552284   54.416367   66.774940
H   18.522152   87.595116   38.851238
H   88.570709   25.023581   57.888493
H   55.173328   46.200451   30.731558
H   45.478378   40.022625    4.151914
H   13.621913   17.156921   60.926720
H   88.903038   37.621521   31.752958
H    5.532202   30.826366   53.544781
H   42.791847   30.164127    6.389462
H    9.601058   75.890648   35.935371
H   66.469078   11.539102   55.203323
H   37.933144   96.033997   21.823872
H   20.792685   40.086948   87.156006
H   97.165825   92.543213   37.216038
H   65.182617   51.537067   76.992775
H   68.301987    1.106517   93.924652
H   98.184090   25.250008    2.677634
H   83.902977   68.828125   13.138466
H   20.690308   51.473030   63.161873
H   63.364597   82.150528    8.447018
H   49.410389    2.763417    1.372410
H   66.592384   93.470917   85.025032
H   95.128036   66.089989   33.867615
H   15.699659   95.550865   62.922497
H   19.123615   37.527725   98.792847
H   50.641602   81.755981   56.769463
H   31.488970   23.970604   79.919258
H   22.930048   79.874428   19.264914
H   29.945580   71.136543   79.058037
H   33.078381   74.596512   31.795162
