100
TIME:    8.854, STEP:  8854
H   18.562275   10.067585   91.039932
H   55.950211   84.649368   36.377872
H   31.963030   10.896342   19.407768
H   82.962723   67.865593   54.845840
H   15.859705   82.444397   25.636700
H   90.716553   91.615898   55.587852
H   88.931969   59.203674   82.847496
H   23.979355   54.584614   95.248390
H   35.979652   35.016754   42.759678
H   32.925941   43.515324   54.390633
H   76.677521   22.501633   86.887230
H   17.907883   67.495888   62.691597
H   79.159409   26.066872   45.220970
H   16.684492   77.785378   31.033474
H   88.146675   79.149910   25.112160
H   45.523560   37.325829   98.081116
H   12.121070   67.592827   79.402901
H   90.400528   64.003319   92.603592
H   83.169586   49.790783   29.824802
H   53.971455   17.789480   19.154047
H   38.867805   74.774078   16.931883
H   11.221948   55.837799   65.278397
H   67.528542   22.617617   79.026688
H   96.393372   42.747772   49.499592
H   12.915027   83.993851    1.927816
H    5.859165   65.087570   57.681980
H   98.588280   74.427933   75.645798
H   85.466797   69.714493   59.440804
H    3.692337   52.395992   38.638023
H   40.494102   71.702866   87.256500
H   64.518501   16.011326    8.878777
H   24.804127    7.886891   79.604958
H   94.020279   20.681477   95.435196
H   52.204941   62.306427   98.747322
H   60.604134   89.297981   63.738705
H   42.300282   78.915436   91.591011
H   29.013134   80.281990    6.125932
H   98.040916   96.918465   47.242691
H   71.343315   88.504601   86.294266
H   29.245943   83.301674   34.648659
H   30.142820   59.982185   50.940884
H   54.047028   76.324127   31.973709
H   87.484711   16.600468   41.006268
H   13.987095   61.262344   46.431004
H   88.636871   82.566124   13.772000
H   63.834656   31.787346   19.131666
H   10.913789    6.348444   10.457790
H   56.728024   86.563324   16.412479
H   23.842056   99.162819   91.283997
H   11.629393   65.497734   64.462334
H   42.893635   14.846893   46.763214
H   35.433941   42.153568   92.825874
H   92.524117   73.347229   88.646194
H   71.650635   62.747902   22.518467
H   35.826668   34.526917   75.649841
H    4.623405    3.220175   91.215729
H   57.555817   34.068214   98.076424
H   66.768738   40.736458   85.495750
H   88.573936   12.881547   31.763685
H   74.745399    8.335263   11.781761
H   18.217588   66.817505   24.068829
H   84.672142   45.530289   94.738853
H   75.159515    3.101560   26.325104
H   51.028835   89.994507   86.753067
H   83.753983   53.690388   20.103247
H   57.433662    2.115088   69.701942
H   77.195328   54.466213   94.532578
H   68.759384   23.907429   89.475006
H   98.182983   13.594353    4.924364
H    9.845138   93.358536   83.064423
H   40.873280   92.973183   55.944893
H   44.161629   57.612694    5.041083
H   29.694382   80.355156   34.733410
H   35.297573   89.050209   77.079201
H   88.977692   41.352268   72.617905
H   34.971794   75.032097    0.168155
H   70.914871   59.465176   47.770630
H   47.951664   71.784691    3.421765
H   86.094887   27.511730   16.466928
H   65.316856   26.700365   58.141197
H   84.147133   20.881052    9.174701
H    5.693717    1.891882   46.278023
H   77.909874   55.188389   73.153831
H   59.289116   69.815163   54.740452
H   21.214828   95.050278   89.457733
H   47.518261   34.275497   56.631866
H   58.493488   59.594231   45.736122
H   98.425713   96.568398    3.775670
H   39.431400    1.196231   55.776497
H   83.526474   44.999664   40.725700
H   86.364830   51.519756   20.442406
H   33.405239   61.384766    2.233781
H   53.011936   93.178886    3.697994
H    2.970545   50.334827   23.809587
H    3.509167   56.643093   19.541628
H   25.225723   46.096741   10.128391
H   59.813377   75.791710   27.987122
H   21.187044   24.556690    1.135607
H   86.929008   75.035912    3.421310
H   89.167618   51.424503   44.806568
