100
TIME:    1.681, STEP:  1681
H    3.643563   67.865067   97.607010
H   54.510185   95.885719   84.037254
H    8.649733   94.842400    3.602422
H   81.758759   63.392967   48.022549
H   80.114487    7.497075   20.125610
H    1.949187   99.386940   45.221020
H   64.867455   74.847496   21.909248
H   87.763008   34.029713   53.850906
H   12.305809   24.672211   94.273659
H   28.901854   40.520027   73.517387
H   43.892502   33.881016   77.826584
H   91.680313    7.950504   73.273735
H   36.334084   60.004555   58.050499
H   71.848396   99.894539   85.164833
H    0.946465   19.873493   69.969681
H   33.935562   64.704704   93.503677
H   88.917587   93.164200   26.406191
H   37.066643   12.953753   41.269333
H   71.443794   48.874626   51.922909
H   47.228096   70.114365   30.782907
H   64.523712   88.868286   11.619457
H   23.533207   46.318665   76.121437
H   63.300255   80.950752   84.254272
H   62.858406   56.842686   82.228775
H   69.461784   52.855057   48.964882
H   38.951153   77.519318   31.612577
H   17.123905   72.601456   33.323879
H   90.704208   34.903103   22.336855
H   47.722687    1.605765   77.710808
H   65.450310   49.235306   17.023266
H   82.227516   72.788651   76.392548
H   71.896576    6.069922   43.645470
H   88.764969   45.491982   49.234711
H   49.127785   19.668983    0.934026
H   38.987938   31.849556   27.089745
H   18.711189   16.534826   14.860868
H   41.028748   42.974953   40.921452
H   94.513222   28.187046   41.064518
H   75.149979   44.623604   81.011307
H    4.862387   54.814274   70.292679
H   20.363792   13.862559   81.948166
H   80.542480   87.301811   81.776367
H   25.720274   73.580399   22.894051
H   72.016167   40.944092   45.093075
H   10.841614   65.564804   99.957352
H   56.400303   94.979286   89.996712
H   53.829884   16.420504   41.987251
H   56.329189   12.690855   72.588692
H   14.168813   93.229454   77.419388
H   61.145741   56.335293   66.092125
H   43.416370    7.353586   71.141052
H   86.826820    7.754470   63.708843
H   43.750023   31.755737    5.239285
H   37.764164   79.779991    5.995016
H    6.934933    5.870000   14.670612
H   95.669540   10.765297   35.401596
H    2.820803   41.042595   15.864674
H    0.886549   18.137821   70.256790
H   22.853981    9.794505   82.432449
H   48.089291   56.996143   15.797950
H   65.739487    0.398820   83.331627
H   39.249176   12.298084   19.293930
H   88.253967   92.521324   18.235207
H   58.471672   50.938713   81.502037
H   99.042976   26.585087   52.109974
H   98.078926   58.705544   45.579189
H   52.698990    6.480359   48.221447
H   64.247597   13.675172   46.564121
H   40.683586   29.000381   54.804214
H   64.437561   32.692101   98.193420
H   68.652946   81.025322   41.986485
H   35.361126   95.735794   79.697136
H   97.386795   35.156895   18.644878
H   93.194481   43.002853    3.301760
H   43.219131   31.035563   28.829533
H   65.401894   15.308542   82.819328
H   19.578516   80.849594   20.777323
H   10.956767   40.804352    7.274339
H   42.128166   48.577976   36.433723
H   17.086258   17.402689   76.101570
H   43.777897   46.672375   80.458290
H   67.451294   55.205765   46.213577
H   24.159550   35.313812   90.006897
H   65.809029   56.006939    9.889168
H   70.478622   43.737228   84.798416
H   12.601017   70.802452   58.517021
H   79.424904   81.130524    3.699647
H   83.015945   70.709702   78.269875
H   90.567329    0.577314   14.446640
H   17.715187   40.115059   84.309074
H   92.815956   64.199036   68.961380
H    2.663979   21.932985   65.549873
H   93.140694   77.999313   48.962021
H    9.702269   15.197289   40.159767
H   27.529182   99.155060   54.713890
H   32.765320   29.349676   80.623001
H   29.172180   64.149620   40.513474
H   13.037202   30.550385   29.140331
H   28.633167   44.096424    4.242255
H   43.637161   35.524876   35.781807
