100
TIME:    9.354, STEP:  9354
H   84.749420   64.215218   90.582169
H   42.141006   11.742723   67.905876
H   40.557545   46.867821   13.538456
H   83.046646   47.266228   27.437559
H   11.379343   22.521332   12.080896
H   82.965088   91.074211    5.103484
H   62.725185   92.964287   21.948162
H   84.680344   97.842453   49.341103
H   23.688698   86.942917   11.285868
H   19.267546   50.694584   73.967659
H   30.168732   42.619446   38.722862
H   98.823189   92.558449   27.100735
H   47.276169   95.803856   95.533035
H   91.927780   76.244240   69.084572
H   94.219673   34.487434    1.067985
H   25.419479   93.593796   56.577209
H   71.913948    0.666189   24.919874
H    1.096563   39.673180   75.269608
H   90.959198   70.766571   56.165287
H   40.501759    7.171270   53.196404
H    9.196871   24.997187    3.360303
H   59.157436   56.501556   22.698746
H   60.852821   18.553057   64.721573
H   49.936832   48.729218   12.364429
H   95.032455   44.341995    5.618667
H    3.500678   50.347580   10.628557
H   55.473816   53.643559   85.564011
H   43.278122   93.052811   75.967125
H   14.564996   97.760368   15.003532
H   59.666771   59.327988   27.004429
H   84.194710   60.846142   69.320389
H   56.374561   94.071960   33.317421
H   29.240295   84.099518   40.479149
H   73.330734   16.484283   77.682564
H   48.160591   51.440926   94.157135
H   85.764938   18.078020   90.019356
H   76.968842   61.971443   45.523884
H   77.372887   87.770821   82.526833
H   50.237919   77.609825   37.839981
H   82.150894   36.493095   73.988663
H   95.972336   77.139801   62.720669
H   11.909788   78.284882   57.497852
H   91.787689   19.600727   77.121391
H   82.064125   69.655922   95.318794
H   45.265411   62.843914   56.560696
H   57.384003   41.324047   21.162992
H   14.822900   33.541622   15.259541
H   56.758541   91.713165   47.349674
H   38.456161   57.751041   71.340759
H   22.124022   73.111870   29.500820
H   43.365986   66.614372   51.257553
H   59.733562   95.757004   60.004219
H    2.893216   76.246399   59.608246
H   60.070511   54.588264   44.581856
H   96.015053   78.345093   79.899414
H    5.246155    2.694223   74.194550
H   89.255173   19.641029   45.630745
H   29.537420   93.516914   72.617332
H   28.008995   34.009430   93.378624
H   41.750843   46.768337   97.560585
H   49.760487   43.566463   85.087883
H   66.926170   40.876358   72.117699
H    9.103293   68.982811   92.038605
H   85.362549   92.718201   73.180374
H    3.598413   13.754322   66.665932
H   26.718048   77.258598   99.265846
H   37.079971   71.752319   18.673336
H   34.221115   52.502937   13.377899
H   23.103632   77.667557   73.567078
H   19.999863   18.472300   82.003937
H   24.993538   58.953144   49.948189
H    2.988553   41.011131   41.690037
H   97.093628   55.621952   21.912212
H   24.292171   57.404278   47.370338
H   13.062665   42.088505   10.528128
H   46.793541    7.076003   66.522537
H   16.325459   16.187435   56.639801
H   71.439964   39.092735   31.036438
H   10.072753   26.043072   22.047831
H   40.795982   99.461983   15.065657
H   93.935646   26.053782   39.059258
H   43.212372    5.137712    4.448651
H    9.534399   63.550205   20.770466
H   93.689537   12.601093    9.074566
H   96.869431   63.769791   40.988190
H   36.009319   52.643265   91.353241
H   91.887352   23.240166   69.577980
H    6.466620   56.559853   98.592651
H   49.807377   73.356621   51.687141
H   39.319630   24.427002   58.597557
H    6.827139   78.518417   31.001488
H   70.400177   98.990051   11.759324
H   85.063019    8.180304   42.363762
H   50.785744   80.629990   58.300976
H   94.864456   11.854733   31.029589
H   66.523636   26.352415   84.302521
H   20.125839    4.485713   99.230606
H   20.221926   49.295574   91.095543
H   63.110039   77.195030   61.543041
H   20.224892   38.595676   96.638947
