100
TIME:    6.747, STEP:  6747
H   61.050125    3.288723   92.968948
H   14.140446   70.475182    3.524750
H   95.743423   59.310051   44.143307
H   82.609070   54.674286   70.338013
H   34.738785   13.559141   82.766830
H   23.390797   93.898567   46.924511
H   99.360718   16.926762   18.077341
H   89.585396   72.302460   88.706535
H   87.773735   37.596924   75.388023
H   90.474922   13.261555   71.890083
H   72.665527   37.722599   89.844307
H   98.324921   61.882862   12.670387
H   13.526688   53.585087   54.605644
H   21.009903   84.279732   70.690605
H   62.555061   67.357536   26.439594
H   30.242249   21.611855   72.980957
H   81.553444   28.232563   87.594368
H   45.348843   66.530045   65.637733
H   50.350849   61.400345   18.820675
H   10.742950   62.529133   75.699760
H   63.900177   84.532135   74.116096
H    9.221802   53.040726   44.708893
H   95.660027   39.749306   39.311646
H   92.164284   17.541964    5.982082
H   88.273384   51.089882   86.368019
H   15.789690   27.201027   55.958778
H   80.277977   62.014297   33.838856
H   63.248436   71.366859   89.792374
H   57.877968   61.232555   38.237122
H   59.702915   23.851830   19.755646
H   81.592918   27.072437   75.577843
H   91.767059   66.096085   74.660484
H   45.607021   74.839851    5.619999
H   63.178673   55.400406   87.511459
H   13.041933   48.827461   35.544434
H   59.142742   13.882579   98.213966
H   26.924427   57.445923   40.102451
H   85.126427   35.479862   98.559502
H   60.281277   34.409599   90.478180
H   27.701786   80.552048   68.875412
H   74.142090   87.689384    1.302013
H   31.613663   68.061508   24.406769
H   69.351959    3.961200   88.817131
H   48.524097   25.890829   40.421509
H   71.402687   65.687637   33.469669
H   91.033684   91.605545   10.571657
H   94.445602   91.762283   90.229073
H   56.599743   64.861893   86.044067
H   62.248573   73.662819   75.334702
H   67.393799   33.427090   11.781293
H   43.038311   18.264242   24.550076
H   33.030384   37.668121   31.137825
H   48.826321   61.130127   11.012964
H   20.447998   97.117126   29.542038
H    3.588344   49.880219   57.736523
H    1.999140    5.436534   62.942993
H   23.982737   94.864372   97.683189
H   23.660006   39.716911   39.769028
H   22.398865   23.848866   93.516472
H   13.787174   46.385593   71.709862
H   85.306297   64.802994   88.346909
H   59.453712   65.141953   90.073135
H   32.113903   46.880165   70.808411
H    6.343624   78.516861   43.959896
H    0.121733   21.972187   23.887945
H   86.868683    6.859871   45.119141
H   46.244339   81.622864   92.806717
H   14.304480    3.404898   88.748215
H   93.170906   64.989944   37.072865
H   67.075157   87.496513   87.525879
H    7.784205   36.335693   81.215004
H   17.646402   27.605362   50.606216
H   67.074158   84.572433   88.754700
H   81.680458   22.402164    2.270303
H   87.470940   38.260624   12.866287
H   85.160789   39.992283   41.941742
H   79.554291   41.831074   10.400587
H   48.966656    9.550047   87.051079
H   85.056252   33.700657   92.956520
H   68.645828   41.479012   39.661034
H   42.901230   99.082474   83.241714
H   47.585907   88.226074   22.550766
H   44.638603   19.951696   72.494141
H   14.332887   89.514305   47.182400
H   23.806402   26.856209   93.706490
H   96.006332   56.884521   10.315427
H   17.771669   12.790847   45.266411
H   64.539330   65.173279   25.621956
H   95.701523   18.510180   73.009041
H   69.814072   31.686192   65.403549
H    0.137659   37.750404   75.946091
H   77.508575    2.918598   62.079697
H   17.949024   29.962803   40.760445
H   99.338783   22.505457   81.738876
H   39.941460   45.374954   71.125244
H   51.196136   29.299425   18.957855
H   27.056993   54.876144   49.163345
H   25.254053   20.301228   43.435150
H   87.301659   65.937386   79.905464
H   58.291965    5.496500   47.781040
