100
TIME:    9.952, STEP:  9952
H   44.308502    9.376239   90.034683
H   25.626080   44.149143    5.609758
H   50.836582   89.891045    6.518097
H   83.147018   22.628519   94.659073
H    6.020830   70.453674   95.867073
H   73.694336   90.426353   64.326653
H   31.386166   33.345062   68.712540
H   37.678726   49.575733   94.433678
H    8.988716   29.447727   73.645470
H    2.931970   59.280979   97.381783
H   74.544159   66.681427   81.119469
H   76.002174   22.532139   84.535103
H    9.143608   59.606506   36.105644
H   62.317947   74.401039   14.591167
H    1.483202   81.071136   72.306908
H    1.373593   41.290695    6.937582
H   23.826485   40.217804   79.358170
H   13.884963   10.574547   54.540245
H    0.275567   95.850525   87.683701
H   24.392002   94.470917   93.911064
H   73.710434   65.466011   87.127533
H   16.488281   57.295410   71.773560
H   52.868286   13.687901   47.640671
H   94.373398   55.883026   67.953384
H   73.644028   96.916367   10.032768
H    0.679703   32.718552   54.354908
H    3.906501   28.783457   97.426193
H   92.821053   20.965427   95.731346
H   27.567898   52.015141   86.736099
H   82.597282   44.527634   74.544167
H    7.728574   14.471209   22.008530
H   94.132797   77.547028   77.957603
H   71.363930   40.346313   94.351707
H   98.597183   61.681267   52.489113
H   33.278114    6.163910   30.540953
H   37.747272   64.919189   88.139656
H   34.325523   40.072029   92.644119
H   52.656017   76.830238   24.726265
H   24.994282   64.579674   79.889900
H   25.826618   80.510071   21.036924
H   55.102554   97.661377   76.809288
H   61.513130   80.635696   88.016350
H   96.934052   23.189037   20.316265
H   43.883739   79.693153   53.786053
H   93.364532   39.204380    7.715687
H   49.669022   52.729992   23.592459
H   19.499050   66.066528   21.001440
H   56.795040   97.872375   84.350555
H   55.934586    8.229815   47.457489
H   34.675125   82.218376   87.689247
H   46.696522    9.133179   52.379898
H   88.795914   40.267410   20.748865
H   15.297155   79.713806   24.875332
H   46.223694   44.829338   70.970650
H   48.402077   30.750246   84.981903
H    5.990963    2.065186   53.837219
H   27.165718    2.385402    2.505389
H   85.009720   37.043800   57.214745
H   75.174660   59.280441   47.470333
H    2.290440   92.731445   80.552040
H   87.483948   15.757437   38.467007
H   45.701988   35.310257   45.059601
H   49.731457   28.224161   51.054214
H   26.425747   95.975739   56.945450
H   27.334190   65.994118   22.354982
H   89.983063   47.530144   34.624767
H   89.100502   92.429016   47.545116
H   92.912910   86.702522   41.965759
H   52.909645   34.699081   36.060932
H   32.144913   48.506435   80.735596
H    6.002099   18.261295   42.776131
H   53.743393   21.155663   85.523041
H   58.103546   26.043596    6.578060
H   11.129711   19.558601   11.839834
H   41.868019   42.969044   55.868900
H   60.932350   45.403057   26.286320
H   70.636665   64.430466   67.245934
H   99.535088   99.993065   64.063499
H   38.747536   24.286556   28.722589
H   11.470439   66.886604   63.547554
H    5.642177   32.240368   74.800926
H   88.085808    9.019876   54.418732
H   47.359718   73.550941   77.721527
H   34.830967   63.773514   54.455231
H   67.752335   26.362854   83.019562
H   22.244625   74.608910   32.880421
H   31.826494   79.760368   98.092842
H   16.083073    8.708695   92.396942
H   62.217045   40.060387   46.796272
H   86.448456   99.822128   79.975708
H   31.300161   10.809756   43.630150
H   14.646120   43.964676   23.151583
H   23.395756   26.124136   88.608025
H    5.205678   16.655476    3.806012
H   84.526108   58.290993   44.771309
H   15.916030    2.739299   53.415222
H   72.659447   38.802475   64.839401
H   19.067644   78.884888   79.087364
H   34.622551   79.777336   11.452694
H   57.367210   23.251099   39.032383
