100
TIME:    7.666, STEP:  7666
H   98.902336   19.012177   92.127579
H   88.760880   20.272671   61.472424
H   11.542467   25.426357   33.352741
H   82.763321   16.811245   19.962727
H   26.505045   87.221046   57.848267
H    9.137437   92.902946   37.935684
H   51.194172   78.983093   89.944336
H   17.353813   51.807613    4.326468
H   65.182961   49.238785   17.539104
H   65.374062   26.457399    7.873271
H   87.182388   74.700790    1.321962
H   63.253677    7.947553   47.254494
H   54.914375   97.973648   63.279865
H   75.506859   81.447121   40.626492
H   73.717232   85.267929   82.243683
H   93.289368   41.232666   96.695587
H    7.652946   89.017395   71.254578
H   65.001480   21.811249   33.784523
H   64.661469   99.949570   67.234955
H   85.981674   43.016369   38.269508
H    9.365402   93.042358   49.173656
H   97.327225   54.260712   66.447571
H   83.390053   32.275139   13.016513
H    6.775625   28.535860   37.729889
H   55.403877   78.208328   93.155067
H   11.461514    0.109771   69.478584
H    1.030765   23.809858   52.075542
H   85.706841   14.262656   20.169065
H   77.860497   44.611256   94.796837
H   94.942276    1.105656   92.813988
H   17.760248    9.481123    2.869539
H   49.793148   40.707180   89.584068
H   10.339220    7.601662   88.410774
H    2.007979   71.179573   48.794434
H   90.169991   79.246269   91.457016
H   39.029652   85.862579   95.325264
H   15.068490   23.790281   12.516044
H   47.141701   18.659481   63.408333
H   21.487125   14.388086    1.420357
H   41.141876   94.517761   41.179550
H   11.335001   19.222631   22.952116
H   54.165245   71.665375   71.321800
H   77.260834    9.473927   55.195789
H   89.843979   41.315941   30.276516
H   91.687141   29.431293   12.110226
H   79.170372    9.132575   14.305235
H    1.626277   41.741768   99.049431
H   56.655514   74.327301   42.906170
H   89.115852   97.552742   38.674187
H   86.689209   47.414860   47.526039
H   42.975208   29.541056   34.237152
H   77.695999   52.391392   70.811615
H   67.888924   66.458801   57.641335
H   99.168091   82.126724   70.095840
H   30.417023   30.416214   65.552856
H    3.143753    4.469835   31.658066
H   82.242767   68.347206   85.087776
H   55.229416   52.928413   16.096140
H   94.874672   62.685085   22.967178
H   53.140900   17.021931   45.571312
H   43.278118   22.067482   16.694893
H   26.836617   56.588028   48.492836
H   94.505043   84.168732    7.789825
H   69.451347   83.523010   19.006275
H   36.599243   48.574085    9.469981
H   30.412880   61.173759   99.457596
H   72.510864   13.396585   37.177349
H   50.822746   55.964287   32.681732
H   38.974930   98.956474   79.434998
H   85.717232   33.687603   85.584137
H   78.602043   73.807465   70.193062
H   41.990833   97.058006   17.961264
H    7.153162   39.120609   65.196350
H   61.446407   64.236938   47.665527
H   31.749380   39.602970   82.543030
H    6.884016   98.891014   80.104378
H   63.019245   62.289833   26.698618
H   92.142944   49.460781   37.804462
H   29.125883   31.001263    3.208891
H   23.577118   91.415703   60.488441
H   60.889626    8.590646   38.169250
H   16.547356   94.185776   45.666386
H    2.765849   35.320713   60.015106
H   77.557289   68.155396   63.245510
H   79.059494   69.365440    4.620322
H   74.859909   90.638947   74.133469
H   79.149590   45.971825   89.087746
H   79.319389   91.632996   16.093445
H   14.774915   67.341637   65.492805
H   88.561340   93.874771   98.259033
H   37.747028   87.373482   95.353683
H   45.505268   72.035904   79.593437
H   76.858917   57.538692   11.828128
H   88.155342   78.260216   43.705349
H   24.051842   63.057091   92.243622
H   27.101791   93.010559   71.489998
H   54.111168    7.615745   96.309715
H   23.480165   65.771416   24.986788
H   43.522392   69.905846    2.928607
H   15.376753   81.911118   59.251026
