100
TIME:    0.162, STEP:   162
H    6.367326    7.165123   98.997696
H   96.763863   13.528130   88.219452
H   82.547821   85.558952   21.437721
H   81.503799   25.976240   31.283140
H   93.720032   85.742538   61.312737
H   25.504242    1.037334   94.788597
H   44.479641   72.277519    3.121131
H    7.153418    2.617764   93.319374
H   49.645729   70.717728   89.889626
H   70.413399   18.712967   14.032648
H   85.186188   72.760971   24.145142
H   49.658627   31.810738   81.397942
H   32.957863   51.906204    9.027791
H   47.060719    4.577784   69.569252
H   82.473274   55.551186   42.985592
H   95.009857   97.567146   19.592182
H   11.041677   92.710426   88.104637
H    4.606579   86.822479   93.929977
H   47.786896   85.149323   71.896332
H   88.264198    2.135462   27.239985
H   54.663239   40.090080   52.844574
H   77.881386   44.313759    5.461132
H   83.581093   93.304680   27.715843
H    3.989983   38.624699   95.042831
H   23.788912   73.325813   37.754593
H   45.913288   22.785278   73.987114
H   48.109699   35.742817    3.180993
H   18.871788   64.000793   72.130692
H   14.693778   63.789852   49.514130
H    7.205776   86.830185   96.267570
H   22.474367   36.569679   96.592705
H   75.986176   48.034492   84.266945
H   81.769226   56.629402   12.391194
H   84.946907   58.876343   64.926506
H   76.745064   46.674271   34.593010
H   86.640190   97.211540   20.086912
H   95.337151   98.602394   21.230114
H   57.292847   55.989178   33.873165
H   43.437870   77.049767   26.599655
H   47.934505   97.016914   50.780449
H   24.170933   61.737263   46.155399
H   17.061539   19.127390   10.411227
H   12.636981   64.471405   13.174898
H   69.014725   15.486707   96.571304
H   42.603004   25.500172   69.970276
H   75.882439   66.249565   83.953575
H   37.790638   34.479847   29.007513
H   56.248066   97.050186   78.601593
H   69.763054   19.032665   38.011871
H   29.287443   33.215137   72.333633
H   43.529797   54.004326   55.129208
H   13.006059   48.706902   63.428352
H   12.239742   22.948059   93.461098
H   72.933990    4.558993   38.964436
H   27.862648   72.707245    1.780816
H   93.768936   12.361958   87.111938
H    6.522688   84.872383   71.394966
H   13.996735   61.587700    9.382128
H    3.054452   45.613861   99.046249
H   48.329956   40.239998   58.997704
H   69.919754   71.035873    1.765701
H   93.161438   26.437485   88.024536
H   85.221474   96.105934   22.444305
H   54.164322   42.675720   22.742270
H   38.751884   47.905918   10.647573
H   91.393562   34.219654   55.764568
H   74.570946   53.961903   74.883530
H   69.175301   26.802494   73.947136
H   64.978172   38.146034   50.072964
H   33.668465   56.292923    1.390104
H   16.888380   84.381859   60.204472
H   60.608433   46.149086   68.483528
H   96.428604   10.294254   57.595676
H   26.625214   39.128124   93.580467
H   69.981125   28.874205   13.678506
H   29.487883   17.954855   85.028946
H   81.663818   12.503044   93.898865
H   39.591385   40.127674   23.386539
H   69.319206   53.025967   19.494812
H   91.580673    0.130852    6.964752
H   14.052174   30.957239   89.671234
H   53.478886   45.285538   73.234314
H   28.046329    9.961318   45.329498
H   61.315102   26.024143   48.633278
H   44.442368   38.751389   32.048088
H   47.568089   15.001445   53.034023
H   77.974327   91.574196   31.267971
H   58.563049   92.324043   94.054420
H   59.045113   85.152550   26.875534
H   52.012245    2.621504   30.003000
H   30.652285   82.178650   36.882885
H   90.272987    7.690465   36.611397
H   95.678658   32.485550   31.447840
H   62.886665   23.058699   37.741550
H   53.790958   35.218807   19.809696
H    7.302162   89.334343   59.081429
H   49.743370   76.977287   27.872169
H    7.460112   17.617004   53.443253
H    0.994884   37.548611   31.481846
H   49.302258   74.542076   82.082993
