100
TIME:    5.953, STEP:  5953
H   14.745483   76.101768   93.695877
H   36.066994   27.447973   53.462078
H   82.089279    2.187135   53.466167
H   82.475800   87.386078   13.858228
H   41.850571   49.916626    4.295677
H   35.706181   94.758766   68.292656
H   40.973316   63.314121   55.985432
H   51.992233    3.612798   61.610157
H    7.291832   13.936818   25.366392
H   12.163313    1.859780   40.801762
H   46.521469    5.774516   66.325508
H   28.631424   22.083515   69.188057
H   64.193619    1.600157   33.501640
H   60.323784   86.727058   10.265324
H   52.908653   38.281235   64.618958
H   62.166702   91.057777   38.890350
H   45.402321   75.714775   15.313421
H   28.369001    5.165882   93.164101
H   37.987003   28.088839   76.988541
H   32.132828   79.393349   21.640497
H   11.017250   63.578335   95.669533
H   33.100250   51.986679   12.325302
H    6.261634   46.206856   62.028168
H   65.939400    8.043428   64.952972
H   16.671101   14.056625   80.504128
H   19.409189   50.674767   30.624493
H   48.745461   95.017227   18.082678
H   30.245232   34.305611   63.550140
H   40.613411   89.194946   75.770874
H   29.256992   43.503136   56.634872
H   50.344452   55.871883   38.396523
H   41.633213   88.037216   48.165016
H   89.678337   32.931999   34.090210
H   29.630699   28.165703   20.960543
H   32.796753    8.918158   87.224625
H   90.121994   51.693413    0.710106
H   50.768730   86.523071   77.538490
H   17.944897   50.012379   42.527737
H   93.793365   51.710503   67.422386
H    2.487753   54.883999    6.403658
H   28.405842   60.442467   82.595802
H   98.527451   64.947830   83.870323
H   62.517513   99.198318   31.465862
H   99.225525   12.563803   62.787773
H   40.277042   97.018265   65.524643
H    1.282928   76.461197    7.345912
H   88.242477   48.582718   82.608437
H   56.557339   56.683945   36.915806
H   39.041374   39.422066    7.005525
H   50.730167   21.339819   67.302292
H   43.092831   94.919418   16.181309
H   94.437767   11.345200   83.258614
H   32.355328   56.526245   57.129154
H   38.833237   10.072120   94.506615
H   66.808220   80.297729   50.982143
H    1.010214    6.271745   89.972626
H   73.645332   17.775734   22.167412
H   82.783112   14.700129   60.219955
H   59.776154   90.297523   54.469765
H   66.180878   85.355408   94.293114
H   35.220905    1.730757   50.252468
H   87.634315   72.532394   25.999374
H   78.210243    1.060620   25.255371
H   51.822182   74.191635   65.518967
H   68.609360   85.388138   49.946201
H   35.643639   46.331749   98.171150
H    9.947926   54.171360   54.473343
H   69.151299   57.995884   50.790424
H   53.600163   22.041710   86.870758
H   50.990700   47.561401   89.197815
H   32.998940   90.358612   90.737770
H   83.114822   53.956528   92.472519
H   18.844612   23.846840    9.111343
H   99.163094   72.652733   49.446159
H   49.188374   37.127827   52.676041
H   66.393913   89.104301   95.368500
H    7.448395   10.579195   96.329796
H   11.663096   61.469620   43.202286
H   46.980007   36.032887   84.100105
H    7.584561   84.731270    8.064916
H   27.363131   90.868179   35.785389
H   88.001343   83.076859   88.972252
H   94.414680    6.674120   96.876617
H   59.705467   21.570236   19.702862
H   62.467537   76.522087   70.675827
H   14.280880   27.716953   55.177628
H   64.742134   70.521187    7.405527
H   51.769615   28.708216   33.854424
H   79.224472   62.718636   79.502937
H   40.013554   64.355515   37.022743
H   67.643944   94.876907   59.178265
H   18.760614   43.201508   46.953522
H   67.052261    6.137716   79.359207
H   22.602242   74.334785   28.200579
H   53.668297   16.495731   52.879337
H   85.614960   60.654022   59.968750
H   90.081474    9.311116   94.826584
H   26.786661   81.012421   59.373062
H   25.125702   62.511341   46.411537
H    8.975693   25.871613   24.269009
