100
TIME:    0.495, STEP:   495
H   83.847816   76.627327   98.692825
H   87.500877   31.582821    9.224782
H   88.269226    9.516429   17.527756
H   81.559692   12.255793   13.030179
H   90.737381   12.433953   52.283485
H   20.340496    0.674903   27.766806
H   27.027977   94.761726   29.162416
H   80.980270   31.425739   62.745827
H   41.459953   38.701233   68.929771
H   61.313011   23.493084   27.073488
H   54.211334   86.160034   92.068642
H   36.948063   48.502403   57.694252
H   11.775891   31.759338   75.929466
H   30.572300    3.551068   94.909081
H   86.522972   25.808252   26.977743
H   81.620956   68.441841   91.950668
H   84.269295   14.732132   18.423567
H   11.722283   70.628769   82.385544
H   52.972237   99.117477   89.441635
H   79.250191   95.153534   49.957924
H   34.902542    6.937953   43.807701
H    9.811694   44.753281   77.107735
H   79.135063   90.596413   18.187366
H   73.050659   42.618504   70.312744
H   11.879904   46.917294   40.213882
H   44.389278   12.860332   42.776917
H   19.393988   21.900078    9.788832
H   90.774498   79.544113   83.136520
H   21.934570   94.002525   33.772644
H   19.973940   78.588516   22.739483
H   35.573643   66.431755   70.241722
H   97.012085   38.835022   53.439445
H    5.224360   32.265160   42.390465
H   99.016685   28.358795   50.897377
H   68.467827   21.502121   54.869446
H   15.593396   23.370565   18.941107
H   27.276283   86.407570   47.469311
H   43.530479   49.894306   57.371067
H   28.466484   69.941200   94.682922
H   16.570316   65.843895   76.980278
H    1.414883   73.164330   54.003277
H   87.133385   34.073669   26.055944
H   15.504670   66.468307   37.227570
H   47.750000   21.067110   29.130367
H   13.718250   12.361695   98.465515
H   71.629494   72.509575   85.259438
H   41.306812   52.444347   31.852972
H   56.265850    0.479821   99.205765
H   79.498589   91.453720   24.727831
H   36.271519   38.283611   49.043152
H   43.506855   21.854647   58.636082
H   29.188337   17.806309   41.566589
H   19.147257   24.878906   74.122139
H   65.225845   99.125603   53.659199
H    1.351943    1.898701    4.606461
H   94.185593   12.011723   75.775833
H   27.632721   75.263878    3.065991
H   89.200134   30.140297    0.804465
H   29.316521   59.683640   73.482849
H   26.353966   65.836288   49.530602
H   90.925339   55.549835   75.801025
H   81.342621   23.337967   72.958847
H    7.807955   73.398155   99.598976
H   77.030708   44.487160   13.700315
H   51.970566   21.309010   41.659660
H   70.936745   17.665180   75.454124
H   47.854118   65.473633   90.960373
H   46.172813   45.847092   89.866463
H   81.573296   14.218773   29.186787
H   40.413727   73.041649    0.689854
H    6.313232   61.724636   56.210667
H   33.152294   35.097527   92.863014
H   74.716736   93.822670   49.056759
H   19.295616   18.054785   73.789284
H   86.037643   29.348024   38.922657
H   37.361164   39.297501   62.621113
H   11.897399   83.641472   99.793030
H   55.236328   18.353539   41.777660
H   85.279182   52.052586   23.207882
H   75.249771   81.996117   78.276520
H   20.568592   34.402660    9.573868
H   78.463829   47.460281   45.387764
H   49.115665   15.519490   77.046204
H   84.221344   54.519382   18.217354
H   28.227610   17.920723   99.767876
H   39.900227   27.236019   76.157509
H    0.214639   67.362389   47.146648
H   63.923691   65.663109   90.594139
H   65.955513   66.611336   24.150753
H   22.571499   88.918030   41.907986
H   44.280003    0.160925   43.915234
H   14.911915   32.734352   42.955246
H   17.044018   42.462440   57.209435
H   95.070930   43.258354   60.192730
H   48.033985    5.389787   27.460678
H   34.806580   76.184258   41.881645
H   23.311506   96.087593    8.720972
H    8.682630   20.452301   48.115639
H   85.131493   38.984043    3.588675
H   69.982651   65.990456   50.010605
