100
TIME:    2.534, STEP:  2534
H   45.957916   89.640678   96.826065
H   30.782478   42.134483   37.843891
H   23.311972   56.209976   93.591591
H   81.901932   28.250101    1.265198
H   72.474243   75.868790   96.998337
H   88.724617   98.462822   29.696108
H   20.163883   32.445496   88.614952
H   20.718895    7.825776   75.531013
H   91.337379   42.659683   40.580860
H    5.593904   52.767845    6.917006
H   64.548523   68.203537   95.661987
H   59.126953   50.706924   12.556318
H   82.074242    8.396877   73.269402
H   29.612297   97.265358   50.079365
H   11.322838   43.679901   28.964758
H   99.637024   90.096100   22.697584
H   20.337616   49.574471    4.068022
H   55.295197   71.472176   11.695320
H   84.732872   84.657669   96.864532
H   24.248795   52.000759   88.859169
H   13.905472    3.948987   88.466095
H    5.317398   47.447906    3.484774
H   51.911476   74.013359   59.849747
H   83.605438   67.073059   18.876495
H   38.952873   85.204285   55.257996
H   35.039921   52.102612   51.659401
H   43.569336   37.141628   50.250858
H   18.730623   74.718269   50.533504
H   66.270126   78.996407   37.388023
H   98.158882   28.123764   84.834587
H   15.783826   49.283535    8.897255
H   25.755348   82.499870   64.678993
H   48.849644   83.083046   26.079687
H   85.168388   41.496719   64.997604
H   17.783104   67.369141   79.030968
H   92.875504   83.543755   11.929070
H   22.842915   11.735048    8.134587
H   59.254440   12.574657    1.259752
H   38.112320   26.204386   98.749191
H   24.519293   74.959175   37.403950
H   62.068752   43.130482    2.044910
H    3.879687   25.584961   21.850603
H   33.067661   78.695587   84.506737
H   17.546129   55.241890   28.495394
H   36.849979   31.912289   72.952126
H   45.395489   11.248951   93.458900
H   61.529133   62.645294   49.782341
H   56.374744   21.473230   25.367455
H   39.100479   22.583797   43.392281
H   79.030418   69.315834    6.434202
H   43.351292   25.002401   80.134933
H   28.279760   28.602547    7.708596
H   61.444931   36.701721   55.699890
H   18.012768   65.866158   43.634308
H   39.028854   80.649414   21.907667
H   96.736832    9.868837    6.363464
H   56.895123   16.429817   96.991829
H   37.369720   37.582870   48.286209
H   90.128395   45.836834   16.946299
H   91.801376   22.559393   91.537605
H   19.547289   60.727413   16.825779
H    8.977024    4.356852   80.699493
H   46.112774   34.353951   59.715988
H   17.044188   55.578827   58.345432
H   32.900326   58.458576   31.547342
H   45.677528   16.300240   96.015205
H   84.260689   35.969868   89.403275
H    5.325014   62.459412   87.342453
H   83.196587   67.709251    1.303416
H   81.722473   75.596748   96.397247
H   41.567177   22.986410   31.752808
H   65.026184   67.426544   42.149490
H   41.770508   92.965263   96.772942
H   74.425774   89.022934   52.605400
H   84.345604   32.249950   93.491928
H   85.563286   69.979485   25.423885
H   97.025421    6.916227   35.864994
H   51.032253   85.028893   54.384548
H   83.026947   46.075573   45.951645
H   75.253181   70.948242    2.614907
H   60.470592   55.497051   31.439445
H   31.452515   60.776505   74.885841
H   78.127640   49.553040   71.250885
H   24.486393   28.999239   31.976898
H   28.945133   90.380798    2.109639
H   92.969421    2.131594   17.752041
H   36.394859   19.110489   44.374268
H   96.747559    2.416391   69.393135
H    8.269894   53.082878    7.468511
H   42.298985    5.018097   14.802764
H   27.724365   10.260934   86.975174
H   65.781418   86.080376   81.806541
H   47.870029    3.561606   14.952229
H   92.148170   66.939964   97.673653
H   12.779087   22.749107   74.315605
H    3.219595   95.667000   36.564697
H   61.465286   13.101441   91.456688
H   16.169027   37.813171   15.490128
H   87.999657   47.773373   32.788994
H   96.611252   13.615419   53.625397
