100
TIME:    6.561, STEP:  6561
H   73.628738   20.345419   93.139236
H   19.276760   60.396458   91.797340
H   92.544846   45.928246   46.327251
H   82.577850   62.337250   80.532593
H   36.404770   98.650513   87.810196
H   26.275761   94.100075   28.503731
H    9.108863    4.366873    3.531848
H    4.204636   56.210926    5.783954
H   92.345970   55.480011   87.095329
H   95.555183   10.590515   64.607430
H   89.966797   30.238440    7.761131
H    5.424149   52.559589   25.909576
H   25.395767   64.833931   73.087578
H   30.218941   84.853035   56.536076
H   60.295906   83.971977   35.383976
H   37.720901   37.880043   88.420410
H   96.510414   15.930665   70.662056
H   41.371197   75.580856   72.085976
H   47.454533   53.596893    9.022014
H   15.753677   66.479286   63.036003
H   74.937683    3.048348   79.165138
H   91.389801   52.793808   60.548523
H   98.143394   41.262032   44.633148
H    9.446098   15.316866   19.796225
H   94.925972   65.840912   84.994362
H   16.637583   32.699913   73.449547
H   96.316277   69.745743   30.147863
H   78.943253   62.685005   83.644974
H   53.833626   44.357006   47.029663
H   52.570683   28.455284    4.969637
H   74.273369   10.393548   90.293571
H   80.022858   71.235947   91.879448
H   32.504772   88.448708   88.863647
H   55.319878   72.446243   95.347549
H   17.671158   62.910286   24.227373
H   42.973888   99.314018   98.798622
H    9.084622   64.257446   25.446325
H   92.814934   38.884205   85.433128
H   68.132233   38.462456    8.502901
H   45.220348   97.964005   54.241039
H   86.854095   81.306419   96.920021
H   47.288681   67.332108   14.911080
H   67.751251    2.845369   75.381401
H   60.400272   22.768881   22.235781
H   87.537483   73.027054   17.552767
H   93.434746   88.057877    9.816004
H   92.992477   81.647171   88.443886
H   56.589809   62.946152   74.535431
H   56.812126   89.068214   82.753586
H   63.488712   30.595697   24.786451
H   43.051083   36.221664   22.589634
H   23.988876   54.928238   43.347481
H   44.967876   60.051636   21.815615
H   24.754868    0.151154   21.334862
H   18.398388   33.579391   56.154263
H    1.767477    5.632188   69.274872
H   12.191590    0.231297   79.993095
H   37.509674   57.282127   44.559799
H    7.729766   15.988652    7.795247
H   26.060753   32.088490   77.000145
H   73.573448   73.453629    2.849558
H   66.055214   66.873215   98.488205
H   19.486326   59.572304   83.562988
H   93.571579   77.503647   49.010357
H   92.739731   36.827923    6.566101
H   98.295013   16.106163   34.121368
H   61.167252   75.191650   83.826859
H   27.152763   92.767372   79.856339
H   83.901558   78.354721   48.739017
H   63.306374   78.142021   87.917542
H   13.690725   48.990936   83.445778
H   32.982929   33.778305   36.987427
H   79.201508   93.773376   93.522766
H   85.775887   34.173908   13.321383
H   78.502434   37.995258   98.765884
H   80.764519   28.070930   54.456497
H   62.661709   57.930393    7.101917
H   40.228039   21.712164   76.779869
H   76.135994   34.246998   90.881844
H   77.767593   51.611153   55.685143
H   39.261322   97.158218   72.124741
H   33.629379   87.019867   38.111271
H   32.873116   16.841101   54.780602
H    1.536448   73.598045   64.170067
H   32.863533   38.491142   11.736946
H    0.286326   50.051712   97.398819
H    5.349116   26.314644   36.397240
H   61.547935   80.056458   27.550468
H   91.841660   28.865824   74.530281
H   86.258224   39.339222   58.754921
H   92.525780   27.707363   72.018112
H   63.746456   88.929535   58.536285
H    6.026287   24.381611   26.376780
H   81.362038   11.221183   69.197159
H   43.157066   62.036224   66.851013
H   35.833313   36.644257   28.564941
H   41.820732   44.201920   59.860275
H   25.613077   11.097867   47.168716
H   96.162315   65.134193   95.483986
H   46.739338   10.269440   65.699471
