100
TIME:    9.700, STEP:  9700
H   61.350494   32.485176   90.265396
H   32.585037   30.492863   89.720940
H   46.504948   71.760857    9.476509
H   83.104721   33.011467    8.471866
H    8.278933   50.254761    2.699812
H   77.601074   90.699364   39.369308
H   44.592602   16.328066   49.005810
H   57.485428   27.775288   17.571465
H   15.183357   53.676529   89.506981
H    9.815847   55.662632   87.514961
H   97.984589   56.541595    5.394148
H   85.619057    9.901337    2.472921
H   25.212967   74.859917   61.147606
H   74.795670   75.177773   95.413643
H   98.422188    3.581004   84.427025
H   11.506569   63.331467   27.856316
H   44.090767   23.550720   56.417618
H    8.495894   22.836723   63.274651
H   96.349609   85.280029   74.398483
H   31.180729   99.823456   76.753716
H   88.664474   90.552193   93.968170
H   92.328796   56.960876   93.233704
H   56.233223   15.740320   54.822433
H   17.787651   52.868378   86.668045
H   82.657211   16.901581    8.172646
H    1.868475   40.147507   78.069130
H   25.636772   39.259449   92.427414
H   14.084133    9.202916   87.402611
H   22.088467   29.151613   98.648575
H   72.934258   50.764572   54.510597
H   97.810646   91.873734   41.945969
H   78.221298   84.510712    1.286513
H   53.613297   58.784119   71.649559
H   87.949783   84.775627   63.105751
H   39.549660   25.243843   15.208184
H   15.841791   45.179867   88.931770
H   10.155557   49.300545   72.787430
H   63.070782   81.440651    6.944054
H   35.632069   70.070641    4.310707
H   49.561459    4.100715    1.210034
H   72.325272   89.013489   70.872276
H   82.750481   79.643631   75.157951
H   94.765350   21.676907    2.114573
H   59.974041   75.463417   29.147839
H   15.243872   49.178867   86.163879
H   52.920151   47.923473   22.568670
H   17.528378   52.360546   18.581839
H   56.779659   95.276855   68.758209
H   48.569122   29.096333   57.538803
H   29.386030   78.380852    5.308388
H   45.293018   33.356110   51.906937
H   76.548904   63.652084   37.291634
H   10.070066   78.252625   39.511673
H   52.058807   48.941795   59.850288
H   68.466408    8.666057   82.840118
H    5.677097    2.330265   62.415894
H   11.190628    9.656998   78.538124
H    3.774266   60.841835   63.705467
H   55.298748   48.631119   66.817253
H   18.919468   73.363098   87.719521
H   71.587830   27.476690   58.114132
H   54.645958   37.655838   56.462585
H   32.602947   45.387489   68.319229
H    9.121128   94.602997   63.788010
H   17.331825   86.119972   98.886971
H    5.463647   60.057854   19.724558
H    9.319065   83.715759   35.378857
H   10.320476   72.290657   29.918701
H   40.349251   52.806198   51.866688
H   27.026932   35.849911   81.270081
H   14.005373   35.409031   45.798470
H   74.495064   29.522850   67.050629
H   74.534149   38.508320   13.039944
H   16.676434   35.507381   26.812140
H   29.728857   42.597980   36.762028
H   54.974190   29.251396   43.242119
H   47.749947   86.240524   62.777267
H   87.695671   16.469902   50.145737
H   26.663946   25.026760   25.909815
H   23.828175   80.614021   85.257637
H    0.709233   29.633310   59.739220
H   69.175041    7.383827   75.501167
H   31.419416   69.336586   53.722721
H   17.494011   42.209549   77.471886
H   80.022415   42.126312    7.448064
H   28.045132   65.353477   15.380832
H   14.995989   98.082817   86.076546
H   12.030687   28.873789   95.007843
H   56.987553   54.091576   48.857307
H    8.728177   10.190720   70.966370
H   20.987295   97.202713   38.308372
H   96.000671   25.011965   18.350832
H    7.242257   18.562521   69.120476
H   82.272926    1.473692   84.630043
H   88.882736   80.862892   38.980415
H   95.101791   12.690123   66.431274
H   92.662254   24.341129   79.332016
H   19.554064   66.414856   84.147667
H   46.627312   78.689140   32.561001
H   41.715263   29.717789   63.309147
