100
TIME:    2.939, STEP:  2939
H   18.569759   52.500023   96.455276
H   19.516685   64.094421   63.391224
H   30.273527   85.347778   88.839317
H   81.969910   11.563070   79.067200
H   68.846695    8.331311   86.016815
H   82.445930   98.024055   69.805626
H   98.938148   59.794243   20.286568
H   88.886688   42.862385   38.344967
H   81.381706    3.720460   15.087053
H   94.526649   58.583046   22.777460
H   26.876404   84.499695   56.649433
H   43.668159   71.007599   83.728096
H   56.311539   83.893692   33.016502
H    9.559064   96.017036   80.899467
H   16.249691    7.504167    9.496554
H   83.353226   54.673431   89.078468
H   87.770180   76.362045   40.937115
H   63.950020   51.777122   97.653503
H   91.042458    1.646232   18.200891
H   13.338341   43.401554   16.433374
H   89.872299   63.631592   77.472214
H   44.145142   47.985550   68.995285
H   46.504143   70.719521   48.262604
H   45.976578   71.930389   88.797752
H   24.468204   53.082687   58.245934
H   33.182888   40.036533   13.699223
H    8.645176   20.305811   58.287701
H   84.557487   93.622307   63.922062
H   75.076355   15.741204   18.244085
H   13.688018   18.100113   17.030655
H   31.722643   85.601273   76.854622
H   51.327400   71.308235   27.186089
H   77.377289   53.450859   62.565285
H    2.280392    4.380988   47.935150
H    7.715274   36.754364    3.694137
H   28.089272   15.358232   10.537068
H   61.686470   96.902328   40.046932
H   42.516426    5.162124   29.838589
H   21.015877   17.381163   59.501221
H   86.372345   37.043846   69.269630
H   34.391445   57.025784   11.587621
H   67.480583   43.762871   40.877411
H   36.556164   81.124252   13.760968
H   91.684555   62.030411   68.092979
H    1.719519   15.934387    7.608833
H   40.170460   18.973713   95.102730
H   64.695602   84.670135   53.672531
H   56.396374   25.643057   50.426582
H   50.937904   89.041801   27.235624
H   87.521477   75.477104   78.106598
H   43.320393   85.901779   84.405182
H   47.962162   91.021866   81.122246
H   69.844231   39.050049   32.176445
H    8.634907   59.257721   61.506317
H    6.785056   16.150345   25.345709
H   97.243576    9.443203   92.576309
H   82.571373    4.743052   35.510887
H    7.212476   99.334976   37.854691
H   22.069725   62.948727   85.854836
H   65.073700   53.690182   80.018440
H   45.095375   41.894444   85.248215
H   94.603752    0.586401   62.376083
H   73.589943    6.730717   31.934433
H   44.855591   57.781929   47.348461
H   48.977100   26.110645   69.265358
H   20.797615   96.166542   19.961197
H   51.767250   49.970226    8.956779
H   77.348869   85.621338    6.703795
H    3.380268   38.608528   75.904274
H   89.929260   95.965401   95.544434
H   28.706596   95.429771   26.893932
H   31.633474   53.985458   71.802490
H   15.363207   72.930321   86.390862
H   65.514488   63.395187   28.535042
H    3.873420   32.827763   24.194344
H   95.135811   95.934685   98.172729
H   33.796848   71.814590   43.027393
H   70.059891   58.547771   76.750610
H    2.449772   44.885960   50.472176
H   55.391273   48.890385   67.723740
H   68.394485   59.686962   55.645725
H   61.841728   63.421463   41.020485
H    3.749489   56.313751    9.825079
H   52.348064   63.655609   94.985077
H    9.224082   65.049759   62.849342
H   83.650269   17.007965   45.876354
H   63.443886   89.663673   63.686172
H    3.266485   69.990982   65.178505
H   16.675270   30.532854    4.154974
H    6.490974   88.356400   29.280449
H   44.298615   32.129726   95.528030
H   95.747314   16.535769   89.525124
H   73.850235   15.700884   46.281822
H   31.293293   91.504707   24.980713
H    5.775941   86.471771   83.622398
H   36.670959   79.673653   15.646029
H   29.318047   36.343609   68.164986
H   17.655272   41.261505    9.009825
H   68.706291   49.519169   98.864738
H   21.763971    3.215504   14.616067
