100
TIME:    6.056, STEP:  6056
H    7.780104   66.656120   93.601578
H   33.222298   33.029705   59.956944
H   83.860535    9.597110   52.256779
H   82.493088   83.142609    8.212253
H   40.928009   58.172531    1.503082
H   34.108593   94.647179   78.492699
H   35.575466   70.268776   64.040169
H   43.896637   12.523448   52.152721
H    4.759895    4.033622   18.882921
H    9.349657    3.338808   44.834629
H   36.940659    9.918827   56.404251
H   24.699928   27.246403   61.856285
H   57.620956   95.371574   23.267021
H   55.223763   86.409584   18.103954
H   54.161263   29.080891   59.667553
H   58.025391   82.049049   30.340469
H   37.119698   82.527901   24.689917
H   30.571676    0.154279   89.593300
H   39.590878   32.410103   82.415466
H   29.358070   77.205605   28.653223
H    4.905083   53.324070   92.873558
H   42.974960   52.123413    3.553941
H    4.886338   45.369164   59.081314
H   56.368961    9.275606   57.303036
H   12.987372    5.887947   81.264809
H   18.939657   47.629684   20.938774
H   39.863251   90.736038   20.126616
H   21.554371   39.113304   66.954453
H   42.853020   98.540009   70.901886
H   33.206287   40.953911   64.823196
H   54.398537   65.107811   30.247490
H   48.136723   85.190948   38.629784
H   96.933098   25.396257   43.369263
H   33.982826   18.726341   16.621595
H   30.236256    1.131970   93.496765
H   99.075714   59.760719    0.386185
H   60.647369   82.751099   85.654518
H   13.687782   48.127178   49.795856
H   89.446167   49.466179   57.440804
H   92.786041   45.241108   14.507505
H   21.366791   63.976334   85.022438
H   89.847198   65.351746   89.129082
H   63.404713   99.815979   38.905319
H   92.648148   14.292624   72.858849
H   31.342937   92.953964   74.338486
H   99.953758   78.425766    7.764365
H   89.047165   54.184097   83.597008
H   56.562840   57.744812   43.288868
H   42.051880   30.891907    2.896642
H   52.890408   22.907545   60.098251
H   43.085758   84.975555   17.266930
H   99.443489    1.787508   76.497353
H   34.491993   57.123474   51.146648
H   36.448250    8.391431   99.051842
H   58.607323   89.323746   51.858341
H    1.138500    6.163399   86.466263
H   80.175560   14.803655   31.963539
H   75.113434    4.972792   57.567001
H   67.899628   94.649437   46.562767
H   59.384003   93.271835   91.363548
H   41.718128   96.940567   42.222095
H   83.978645   71.573685   21.338631
H   85.202538   94.032143   18.192352
H   58.895416   74.752716   62.722630
H   72.697235   77.162094   59.538013
H   29.316322   41.211296    4.261446
H    1.683831   57.731945   59.446060
H   62.036415   63.886448   55.714420
H   58.733974   14.640785   80.411255
H   53.077072   52.742363   88.980927
H   29.728050   83.350601   89.502449
H   74.621597   50.538177    0.013321
H   12.128536   18.752319    6.470177
H   96.895195   66.133507   43.326134
H   54.154018   37.274776   60.484024
H   68.828407   95.705254   88.437500
H   16.800144    1.651788   98.151344
H   16.502224   54.734291   48.890892
H   51.918934   35.730343   85.248985
H    2.533541   79.120461   99.191460
H   29.378778   91.933762   41.941563
H   95.732315   83.744812   80.356438
H    0.929287    8.396533    6.685733
H   66.791588   30.384472   10.295600
H   57.452385   70.079872   60.691101
H   11.910038   31.500320   62.330231
H   71.621269   63.032249   12.316961
H   53.426140   20.466063   32.786484
H   81.361923   56.983665   78.660530
H   30.906645   60.117611   40.704346
H   71.859123    0.438961   61.353436
H   26.381571   50.948196   48.915733
H   73.654785    9.228375   87.324356
H   32.556690   80.583687   35.145721
H   51.887611    7.269337   55.246250
H   94.122330   56.586578   54.648697
H   81.905724   15.221915   88.903015
H   26.587847   86.109299   57.305550
H   20.218994   62.955334   37.783936
H   15.373312   23.228481   14.346396
