100
TIME:    5.138, STEP:  5138
H   69.860512   50.840523   94.442032
H   58.575996   83.284607    2.072403
H   68.074005   43.551910   63.035603
H   82.339005   20.964973   58.533058
H   49.150452   84.590866   26.392010
H   48.347286   95.641716   87.579582
H   83.687325    8.279205   92.251297
H   16.049629   33.104153   36.439945
H   27.326088   92.295547   76.668816
H   34.431297   90.157433    8.886824
H   22.330780   72.981186   44.831127
H   59.739861   81.232140   27.200216
H   16.200577   50.885597   14.484375
H    0.678295   89.239113   48.244843
H   42.997231   11.080745    3.792490
H   94.935333   62.340775    6.541937
H   10.939768   21.809956   41.120758
H   10.940520   44.819897   21.416155
H   25.294510   93.897583   34.051670
H   54.088432   96.704140   66.151558
H   59.380516   44.713638   17.790504
H   54.965408   50.904755   81.730133
H   17.144325   52.835197   85.345505
H   41.663799   98.293671   25.480186
H   45.819244   78.690872   74.485146
H   23.124418   74.766571    7.264021
H   19.023012   28.895897    1.910835
H   99.012856   96.264191   36.607735
H   22.892235   15.251699   14.296329
H   98.007706   63.674187   91.845222
H   18.267345   82.789749    2.876732
H   90.173775   10.556188   23.613625
H   32.270725   92.562202   60.668571
H   95.193695    2.855756   55.295097
H   53.054855   70.526657   37.596207
H   19.275160   87.858604    3.273255
H   72.599426   16.370914   13.319505
H   51.627842   64.928871   85.015907
H   28.195614   69.468987   46.401672
H   79.250847   31.180668   42.281666
H   84.106094   32.480316   63.394756
H   69.846306   42.454285   44.185154
H   55.497440   94.311005   72.596230
H   51.264080   98.883911   83.102341
H   10.972635   29.172630   95.782616
H   11.799866   60.916309    4.034356
H   81.875290    4.259245   74.786247
H   56.513813   48.289703   86.488274
H   15.220383    6.921355   39.517258
H   33.637005    8.934996   24.305946
H   43.152622   73.602646    7.589680
H   54.829384   86.971466   36.762093
H   15.448754   51.800598    4.461462
H   57.704735   23.371635   58.541954
H   31.700241    8.874328   44.049122
H   99.995010    7.129045   17.717163
H   21.979172   41.292046   44.654060
H   43.469131   91.666695   81.211777
H   95.500511   55.862305   17.035572
H   19.964352   22.711613   17.473640
H   83.809387   39.631100   13.797622
H   16.558630   80.118301   62.878075
H   22.878759   56.675339   81.142365
H   95.856483   69.752014   87.642456
H   36.258217   50.481098   74.048515
H   85.710625   86.847954   49.981987
H   75.337006   25.997135   15.124779
H   25.449120   11.384707   11.828712
H   12.978371   80.602425   37.986519
H   34.482025    6.568012   90.913971
H   58.878075   45.810791    0.512521
H   50.315018   81.004639   32.801758
H   71.984039   64.157875   30.009895
H   17.102276   24.235329   97.871605
H    9.895598   35.965069   90.892914
H   47.125237   36.870239   50.206631
H   33.451771   81.218941   81.916573
H   73.372910   14.758755   98.191200
H    7.899831   38.426800   75.009453
H   47.548004   29.126564   78.277985
H   11.414518   82.436630   87.075478
H   26.835815   77.782608   57.141258
H   42.865273   93.044861   19.260504
H    3.636580   51.829025   94.140533
H    2.150648   27.499794   49.680885
H   33.040455   97.780830   98.581375
H   10.310141   29.778473   68.543182
H   38.659225   93.934326   42.310539
H   62.311630    8.096972   86.168587
H   12.070069   97.882736    7.889473
H   34.290825   50.868069   41.966961
H   58.458866   81.906204   31.427282
H   14.809028   81.687202   16.334003
H   43.835403   24.889952   73.246620
H   67.758186   89.498589   34.150852
H   18.299362   92.838165    2.064388
H   54.771935   62.539959   41.698074
H   25.725027   59.984680   73.814796
H   63.950623   58.998196   14.675186
H   58.350636   46.783512    2.780242
