100
TIME:    3.860, STEP:  3860
H   56.286041   68.039673   95.612076
H   93.896599   14.027079   21.487288
H   46.104622   51.607628   78.032295
H   82.124496   73.617973   28.582891
H   60.597382   82.153526   61.044022
H   68.167732   97.026268   61.015602
H   50.666851   21.982906   92.309959
H   16.497910   22.541286   53.782284
H   58.741768   15.170256   57.114803
H   69.357109   71.807243   58.845367
H   41.207230   21.557758   67.933907
H    8.513718   17.172235   18.169985
H   97.728348   28.172180   41.476303
H   63.956322   93.178261   50.988583
H   27.453720   25.236420   65.227516
H   46.322662   74.119316   12.627382
H   13.708999   37.279438   24.779379
H   83.624718    6.988779   65.724304
H    5.389297   40.285759   66.720459
H   88.523918   23.844858   79.139397
H   35.218842   71.942749   52.474556
H   32.442307   49.208191   90.563644
H   34.207466   63.229088   21.911236
H   60.405678   82.976318   20.395641
H   91.528961   80.042343   65.046791
H   28.957327   12.595111   27.373102
H   29.226370   82.022049   76.559242
H    6.846728   36.611450   94.361626
H   95.102371   99.301712   74.708168
H   49.002365   95.304375   90.247864
H   67.972450   68.188362    3.988029
H    9.479947   45.862640   41.924507
H   42.250797   86.066643   45.536240
H   41.196167   19.976662    9.135937
H   84.821548   67.133690   59.774010
H    8.173967   87.708771    7.362860
H   50.022827   63.174301   12.618114
H    4.452409   88.310249   94.831612
H   82.141113   97.316032   70.249626
H   99.624962   50.823463   41.731174
H   71.448196   88.630203   33.285625
H   84.706314   85.097198   84.147659
H   44.489277   86.647217   80.285149
H   32.871307   77.461884   58.143921
H   21.829596   79.594788   86.421082
H   28.288357   36.540394   98.840919
H   71.890915   34.758385   62.519112
H   56.445560   35.126709    7.412812
H   77.860703   12.764969   90.496857
H    6.833247   89.488289   13.691555
H   43.250126   96.985023   94.116043
H   92.722061    5.559732   20.659718
H   88.942726   44.390320   78.687263
H   87.304771   44.227669    2.148417
H   33.454788   96.868591   33.177464
H   98.395950    8.473806   61.223297
H   40.958569   78.167931   23.105688
H   38.632317   12.358107   14.130136
H   94.707405    1.862558   15.148441
H    4.299550   24.480330   53.823006
H    3.192005   99.065331   13.440508
H   61.915672   92.013748   20.700890
H   36.115559   43.883965   68.778679
H    8.098307   62.791946   22.340534
H   85.532738   52.552807   55.034229
H   64.219246   50.380745   74.417130
H   77.873306   81.812012   53.423382
H   13.729315   38.295303   50.732922
H   49.285118   72.431351   18.139446
H    8.590395   42.289673   93.605072
H   99.459099   32.765907   15.844490
H   55.691734   23.419434   39.232883
H   55.312454   27.375027   62.780876
H   45.238613    5.110518   73.806114
H   48.276791   34.141750   94.011757
H   16.908854   54.963486   36.200634
H   17.417582   91.987350   59.315220
H   13.330150   98.324135   27.613024
H   46.612854   42.180691   60.752197
H   10.223598   98.729362   88.378838
H   86.410873   69.215134   10.692304
H   30.945007   69.436295   64.006714
H   62.021313   71.688110   97.545929
H   15.712431   42.467842   10.866088
H   64.379379    7.438459   73.568741
H   62.457310   50.839836    9.833373
H   24.955404   22.699486    7.603064
H   18.089251   96.253487   55.600288
H   35.790634   79.253777   96.620979
H   25.062429   50.466072   62.200699
H   81.989685   81.860008   14.977944
H   63.897331   85.795464    7.076771
H   32.886879   43.336807   17.504251
H   20.311108   47.370789   87.078423
H   89.852516    3.973565    4.786334
H   12.741805   43.303596   68.074883
H   56.213593   89.198235   15.196840
H   21.035101   49.103271   94.271065
H   24.831749   53.489239   21.721176
H   78.969948   79.578621   25.893660
