100
TIME:    1.847, STEP:  1847
H   92.417633   52.641983   97.455032
H   49.892601    4.885751   94.508507
H   11.503111    6.784964    1.653634
H   81.786621   56.553978   38.922894
H   78.627640   20.802708   15.625149
H   99.375130   99.207100   61.661190
H   56.167881   86.055840   34.890663
H   74.715736   48.390324   38.608826
H    8.225212    8.711891   83.825203
H   24.365957   42.903542   80.016960
H   28.451584   40.560429   61.836185
H   85.345383   16.270967   61.457481
H   25.775070   49.961372   41.552071
H   63.628944   99.382881   97.796700
H    2.965789    5.045982   61.990540
H   27.261215   50.184578   79.724380
H   75.571426    4.142067   41.519325
H   40.614052    4.880957   35.514450
H   74.029945   55.838997   60.667950
H   42.756157   66.588486   42.084969
H   54.673035   72.343262    7.113956
H   39.450321   46.537766   61.987343
H   61.083916   79.600685   79.504974
H   47.435219   58.833591   69.900864
H   63.524529   39.690002   50.189568
H   38.189999   72.572449   16.053244
H    2.809514   65.701675   36.617992
H   76.696945   42.651424   27.823877
H   51.332153   16.666395   69.863701
H   71.815636   45.126846   30.219349
H   88.757484   87.674850   63.256695
H   82.377960    1.483842   28.278008
H    0.457141   33.346443   64.189301
H   56.141548    4.456272   93.940582
H   34.861748   19.301277   37.197517
H   33.144573   29.575132   14.290318
H   56.949661   36.895851   54.001652
H   87.651436   25.148762   52.778187
H   67.687881   41.079994   65.101791
H   89.226646   39.273304   83.352615
H    9.019936   19.558550   85.859055
H   65.623352   94.751244   89.575348
H   27.150129   74.575851   34.884293
H   61.415733   43.726547   61.323009
H   96.442238   59.015537   14.162821
H   54.258686   98.145485   90.670479
H   55.582691   25.375780   43.405708
H   56.338055   14.399969   82.859840
H   19.020697   79.480553   70.798233
H   64.627068   58.861919   54.482082
H   43.403706   91.327278   72.891327
H   94.894295   92.351151   52.810787
H   47.193581   32.718262   95.598473
H   33.920399   77.072258   13.319700
H   93.719955   20.422506   16.079237
H   95.877243   10.590839   29.750565
H   13.344297   36.252769   31.652609
H   88.525726    2.460922   65.981155
H   35.945580   16.808622   69.689133
H   37.135509   69.755356   11.076831
H   76.210739   92.678413   70.388206
H   33.357513   10.752663   11.782619
H   99.512970   81.201530    6.846768
H   69.870605   51.841713   76.995903
H    5.631828   13.326882   67.569595
H   87.881233   50.453163   55.394405
H   39.380692   12.219136   56.235729
H   52.780891   23.169334   54.499882
H   48.957497   17.072678   44.392487
H   67.801331   41.042000   97.843872
H   63.381859   69.730858   39.995579
H   21.673803   90.226608   91.850273
H   86.563461   26.946308   14.388241
H   89.541954   32.497406   93.435860
H   51.222015   31.271761   41.413433
H   69.325447   25.947603   71.648979
H   34.650368   66.462387   23.713655
H   18.755749   29.949476   16.442097
H   50.085457   48.091648   38.285316
H    8.945053    8.361925   61.800484
H   47.026417   48.389721   90.379890
H   79.905853   56.289871   32.332962
H   34.662464   38.084869    5.817529
H   77.227608   70.211769   94.726868
H   62.395950   33.353363   68.706528
H    8.780048   76.899284   70.044518
H   90.511665   69.060974   11.615377
H   85.688217   57.419266   76.542397
H   94.012154   91.334572   13.088657
H    3.038314   33.284935   90.243797
H   99.609352   73.163177   72.466995
H   14.946554   34.417431   68.713539
H    3.791582   82.974045   61.804123
H   25.747173   25.266436   51.351646
H   24.658707   84.286591   58.528526
H   46.476227   22.795012   72.048935
H   15.996360   73.676079   30.966751
H   13.646695   31.963776   26.483891
H   20.725903   44.811985   90.336655
H   53.946304   31.260750   19.793285
