100
TIME:    0.618, STEP:   618
H   75.529701   65.347572   98.580215
H   84.079414   38.252110   16.983397
H   90.382538   18.365391   16.083534
H   81.580338    7.187880    6.287928
H   89.635681   22.292946   48.948357
H   18.433167    0.541033   39.948215
H   20.581532    3.066999   38.781178
H   71.312714   42.066433   51.451996
H   38.436378   26.875320   61.187500
H   57.951607   25.258713   31.890375
H   42.770172   91.109238   80.220207
H   32.253170   54.667793   48.938835
H    3.952025   24.317703   63.703812
H   24.481983    3.171831    4.269246
H   88.018806   14.821778   21.065256
H   76.675507   57.683292   81.740707
H   74.380272   22.866318   29.622149
H   14.350551   64.647308   78.121384
H   54.887543    4.277569   95.922333
H   75.920692   92.574768   58.349236
H   27.603546   94.693024   40.469757
H   21.605824   44.915627   66.635017
H   77.492836   89.596062   14.667929
H   61.622635   44.093693   61.177917
H    7.481095   37.162464   41.122269
H   43.825291    9.195584   31.248449
H    8.787546   16.787121   12.229650
H   80.395622   85.285339   87.201736
H   24.609055    5.162036   27.958549
H   24.689947   75.544296   32.517330
H   40.412113   77.461891   60.508476
H    4.778168   35.437019   42.052711
H   13.888515   23.266211   53.471275
H    4.213817   17.086548   45.715446
H   65.410469   12.204204   62.358940
H   26.288048   33.032909   18.517881
H   39.073292   81.903175   57.161266
H   38.447083   47.643047   66.050697
H   22.936871   67.315514   82.894547
H    4.985107   54.328747   86.657219
H   93.008713   77.385323   56.902042
H   76.078850   39.594368   31.834707
H   16.564032   67.205902   46.111549
H   39.895462   23.128340   41.156990
H    3.048940    7.508914    8.991190
H   70.058586   74.821831   85.741783
H   42.605579   59.079884   32.903999
H   56.272419    1.746248    6.816240
H   83.094597   81.266281   19.821325
H   38.851223   40.155750   40.440697
H   43.497471    9.979467   59.932972
H   35.165825    6.392813   33.491524
H   21.698809   25.592102   66.978920
H   62.378155   97.119270   59.086994
H   91.560410   12.681631    5.650213
H   94.339493   11.882456   71.588623
H   35.430016   71.714790   14.764509
H   80.041199   18.524590   97.636307
H   39.016922   64.880585   64.040512
H   18.237610   75.289886   46.032188
H   98.684158   49.830193   66.210419
H   76.977112   22.193100   67.394043
H   16.151169   65.010597   91.160744
H   85.476448   45.156250   10.360495
H   56.853142   11.485098   53.114899
H   63.380623   11.550465   82.726845
H   37.985741   69.726532   96.898666
H   37.676399   52.881454   95.746574
H   87.703026    5.380775   21.472073
H   42.905220   79.227684    0.431203
H    2.407195   53.354908   54.735477
H   23.010420   31.015419    1.868157
H   66.697037   87.737984   45.902744
H   16.588287   10.270924   66.479027
H   91.968430   29.523039   48.246754
H   40.269314   47.181129   54.345226
H   23.065014   72.981071    1.969491
H   61.015091   10.310848   48.570850
H   91.174309   51.692234   24.579376
H   69.217636   75.297707   67.679932
H   22.975628   35.675152   16.925152
H   87.692207   48.263565   35.101791
H   56.897945   17.572329   88.761383
H   92.682098   65.044655    6.982643
H   22.238173   10.226830   87.844368
H   37.069027   31.754021   84.698967
H    8.429556   58.419289   53.011745
H   65.903748   55.815376   89.316017
H   68.508003   59.762779   23.144302
H   11.696671   83.856216   46.305401
H   49.313663    6.802452   46.512768
H   24.012697   41.985252   45.298470
H   24.935623   46.147598   66.724968
H    6.959239   50.719696   68.486015
H   45.907536   94.372375   30.286716
H   44.965866   71.327019   35.528572
H   13.548641    3.146276    1.647047
H    9.134242   21.499573   46.147781
H   79.272026   39.514248   93.285164
H   77.621353   62.831402   38.164047
