100
TIME:    6.838, STEP:  6838
H   54.896072   94.943642   92.885635
H   11.627518   75.405922    9.262649
H   97.308319   65.857063   43.074818
H   82.624344   50.925201   65.350342
H   33.923706   20.853193   80.299377
H   21.979336   93.799980   55.936893
H   94.591049   23.071789   25.193659
H   82.432976   80.175537   80.351631
H   85.536781   28.847672   69.660255
H   87.989418   14.568354   75.453102
H   64.200928   41.384205   81.078392
H   94.852158   66.444244    6.193125
H    7.719772   48.081570   45.563408
H   16.504406   83.999245   77.615303
H   63.660347   59.228966   22.063580
H   26.583073   13.652636   65.427246
H   74.235786   34.251232   95.878456
H   47.294895   62.101959   62.483284
H   51.767864   65.217941   23.614643
H    8.291466   60.596966   81.895470
H   58.500107   75.473236   71.645866
H   17.946060   53.161530   36.959396
H   94.445045   39.009209   36.708115
H   83.709404   18.630587   99.223618
H   85.018623   43.872894   87.040077
H   15.365505   24.516022   47.397026
H   72.431282   58.231194   35.644665
H   55.570450   75.614433   92.799973
H   59.856651   69.488869   33.935394
H   63.192341   21.599602   26.989643
H   85.173988   35.232460   68.378212
H   97.512878   63.581539   66.236153
H   52.017262   68.181755   13.817998
H   67.023567   47.060776   83.677673
H   10.777035   41.937477   41.081276
H   67.053307   21.010300   97.927925
H   35.652359   54.113403   47.272923
H   81.364845   33.814297    4.981075
H   56.439854   32.426750   81.659500
H   19.130615   72.033295   76.034775
H   67.922775   90.812233    3.445797
H   23.944702   68.418365   29.052509
H   70.135101    4.507076   95.390526
H   42.713711   27.418234   49.318642
H   63.508827   62.097218   41.256657
H   89.858971   93.341232   10.941359
H   95.156540   96.711075   91.102470
H   56.604977   65.799164   91.674637
H   64.908577   66.125771   71.705032
H   69.304443   34.812168    5.418472
H   43.032063    9.478540   25.509216
H   37.453609   29.223656   25.164284
H   50.714054   61.657776    5.727797
H   18.340874   95.632767   33.557510
H   96.342758   57.855354   58.510639
H    2.112480    5.340811   59.845139
H   29.751467   92.238625    6.338131
H   16.884230   31.123140   37.425156
H   29.575584   27.694454   86.530678
H    7.782217   53.380413   69.121605
H   91.046562   60.571259   81.251419
H   56.223946   64.294937   85.956085
H   38.292255   40.670570   64.568268
H   12.592468   79.012573   41.488972
H    3.733783   14.704170   32.362598
H   81.278381    2.336149   50.499771
H   38.943344   84.769318   97.200089
H    8.018341    8.609458   93.098541
H   97.705910   58.451263   31.365231
H   68.919151   92.073174   87.334259
H    4.894373   30.144150   80.123604
H   10.152516   24.579945   57.273506
H   61.140884   80.072144   86.421936
H   79.676781   16.642807   96.863403
H   91.858757   38.390453   19.764950
H   87.311653   45.824886   35.818932
H   87.818939   33.954525   12.014429
H   53.242001    3.599703   92.076241
H   89.420464   33.433361   93.971550
H   64.183029   36.521889   31.821281
H   44.682045    0.023915   88.680664
H   54.414101   88.816208   14.937695
H   50.394836   21.473547   81.160080
H   20.593510   97.301292   38.871235
H   19.375471   21.163849   84.885033
H   93.912399   60.227455   16.634872
H   23.849352    6.174258   49.605629
H   66.002861   57.891140   24.678436
H   97.589951   13.443621   72.264778
H   61.768620   27.941967   68.656921
H    3.861802   42.663788   77.867844
H   84.241653    9.762523   63.813301
H   23.782322   32.693386   47.797615
H    8.133452   28.026331   87.874878
H   38.368233   37.223473   73.216400
H   58.712357   25.706205   14.257549
H   19.834105   60.098480   43.929901
H   25.078402   24.803947   41.608513
H   82.966606   66.330345   72.283714
H   63.944057    3.161393   39.014431
