100
TIME:    1.488, STEP:  1488
H   16.695116   85.564194   97.783707
H   59.878822   85.422325   71.862846
H    5.332103   80.956978    5.868190
H   81.726364   71.344322   58.602268
H   81.843170   92.027290   25.358421
H    4.942111   99.596031   26.107073
H   74.983345   61.815861    6.816384
H    2.932434   17.333340   71.571495
H   17.050117   43.228317    6.422143
H   34.175819   37.748833   65.960655
H   61.844894   26.115192   96.418030
H   99.045624   98.276649   87.011909
H   48.610092   71.681267   77.233421
H   81.404747    0.489538   70.478386
H   98.599098   37.112255   79.246262
H   41.695496   81.585136    9.524060
H    4.434535   80.400803    8.834582
H   32.942245   22.339417   47.960251
H   68.437004   40.777496   41.755482
H   52.427399   74.213730   17.642557
H   75.976608    8.081680   16.857780
H    5.026946   46.063927   92.554237
H   65.877083   82.520409   89.776047
H   80.790184   54.527958   96.561829
H   76.364738   68.161812   47.541000
H   39.836109   83.270798   49.701927
H   33.766609   80.623489   29.493979
H    6.989208   25.894512   15.957366
H   43.526138   84.095154   86.834251
H   58.049664   54.012009    1.680770
H   74.635445   55.481201   91.665039
H   59.710392   11.402049   61.512459
H   75.171097   59.612999   31.847746
H   40.973228   37.356331    9.064529
H   43.785255   46.438820   15.337936
H    1.930162    1.373442   15.524217
H   22.517910   50.042824   25.713751
H    2.490725   31.719509   27.445614
H   83.825790   48.743584   99.508514
H   23.040804   72.882271   55.107670
H   33.552734    7.240132   77.401169
H   97.888214   78.640724   72.708878
H   24.057852   72.423035    8.953597
H   84.340767   37.709068   26.223104
H   27.582897   73.180435   83.442093
H   58.890255   91.298103   89.213356
H   51.791981    6.008965   40.338081
H   56.318882   10.703753   60.646938
H    8.527768    9.213837   85.117477
H   57.097912   53.397709   79.591759
H   43.431095   25.986998   69.106094
H   77.447166   25.663427   76.378036
H   39.746368   30.636658   16.448486
H   42.233120   82.928139   97.478714
H   22.299973   88.950974   13.032854
H   95.428055   10.968130   41.971771
H   90.584808   46.611488   97.508522
H   15.257645   36.364769   75.227859
H    7.633026    1.639554   97.248474
H   60.824711   42.160976   21.287315
H   53.565075    9.373912   98.380302
H   46.099121   14.094870   28.027168
H   75.163681    5.682528   31.475685
H   45.217941   49.888840   86.741096
H   91.383171   42.000149   34.135494
H    9.935072   68.300179   34.167522
H   68.183517   99.808014   38.903637
H   77.579369    2.636855   37.337605
H   31.063919   42.868134   66.909065
H   60.527977   22.984770   98.599823
H   74.781380   94.156837   44.301212
H   51.274143    2.141178   65.567284
H    9.971046   44.702938   23.593861
H   97.441093   55.217018   14.772331
H   33.914574   30.760946   14.198303
H   60.839153    2.938956   95.806541
H    2.055297   97.576889   17.363394
H    1.889277   53.424919   96.615738
H   32.876617   49.143406   34.280968
H   26.551315   27.913939   92.728737
H   40.001003   44.675701   68.922935
H   52.969875   53.945328   62.351883
H   11.948283   32.092041   71.624542
H   52.531940   39.491680   27.517616
H   79.875946   55.810036    3.507606
H   17.043468   63.713909   45.114571
H   66.534874   95.163193   94.496582
H   79.909027   86.161835   80.275642
H   86.562202   11.323026   16.025505
H   34.779060   48.056107   77.409065
H   84.917610   53.778316   64.885574
H   88.383888    7.418081   61.872490
H   80.757195   72.215439   34.031143
H   91.048347    3.490325   27.147247
H   30.866543   16.443214   50.278801
H   16.824326   36.970940   90.591644
H   44.491653   53.073681   51.612976
H   12.328574   28.907104   32.228790
H   37.827019   43.264477   20.408581
H   31.651230   40.482693   54.370308
