100
TIME:    6.332, STEP:  6332
H   89.115311   41.345451   93.348892
H   25.600502   47.986584   77.359047
H   88.606812   29.452930   49.016087
H   82.539413   71.771759   93.083984
H   38.455902   80.295151   94.019501
H   29.827679   94.348167    5.825092
H   21.110531   88.904335   85.623726
H   22.203583   36.400204   26.810467
H   97.975227   77.497360    1.509299
H    1.810154    7.302023   55.641148
H   11.267807   21.024069   29.819538
H   14.165047   41.080936   42.209984
H   40.008774   78.681694   95.842216
H   41.557686   85.558876   39.108440
H   57.514473    4.427368   46.396145
H   46.928284   57.909157    7.429451
H   14.925458    0.784366   49.815285
H   36.473988   86.724060   80.024940
H   43.888638   43.989418   96.957520
H   21.922798   71.343300   47.444603
H   88.526871   25.846622   85.381432
H   69.435349   52.489807   80.050003
H    1.200991   43.124474   51.184891
H   30.723537   12.577364   36.803921
H    3.116329   84.000595   83.303139
H   17.681494   39.470047   94.984688
H   16.063084   79.264114   25.603575
H   98.266525   51.996056   76.076401
H   48.854301   23.580475   57.854889
H   43.789600   34.122978   86.764725
H   65.261665   89.858360    8.411247
H   65.563599   77.564056   13.079063
H   16.374355    5.203487   68.233521
H   45.644264   93.432785    4.994833
H   23.370300   80.248817   10.294179
H   23.067465   81.377968   99.518440
H   87.120125   72.643677    7.402162
H    2.280589   43.075573   69.272163
H   77.797363   43.452263   30.694090
H   66.788910   19.402420   36.222874
H    2.504791   73.447823   91.524879
H   66.587494   66.434082    3.220233
H   65.780487    1.471599   58.840103
H   75.023331   18.925192   99.845665
H    7.402035   82.063217   97.956161
H   96.390892   83.690048    8.885656
H   91.203415   69.193619   86.245995
H   56.577579   60.587524   60.366199
H   50.118866    8.034393   91.887589
H   58.682354   27.109297   40.798515
H   43.066807   58.329865   20.175972
H   12.857153   76.177597   58.379799
H   40.217426   58.723816   35.115856
H   30.057411    3.887837   11.230327
H   36.632103   13.510844   54.206211
H    1.482258    5.873074   77.070572
H   97.674034    6.839322   58.213356
H   54.561676   78.908119   50.458115
H   89.668488    6.311728   25.375084
H   41.171692   14.486142   83.513451
H   59.128162   84.104141   20.703815
H   74.182869   69.004715    8.849950
H    3.939421   75.198647   99.266205
H   77.847397   76.256195   55.228397
H   83.651154   55.118641   85.240349
H   12.362175   27.490471   20.581099
H   79.540085   67.273651   72.771011
H   42.971291   79.670876   68.908813
H   72.489296   94.809204   63.102184
H   58.667740   66.624931   88.399750
H   20.963020   64.571854   86.192268
H   51.864178   41.378326   20.220821
H   94.132492    5.100983   99.393127
H   90.818108   48.666363   26.927168
H   67.460564   37.668545   81.406387
H   75.351906   13.394154   69.865112
H   41.863857   77.750389    3.040492
H   29.469204   36.686226   64.134132
H   65.153526   34.919643   88.327538
H   88.998154   64.085670   75.413750
H   34.779930   94.789108   58.437717
H   16.445551   85.534805   57.268566
H   18.387650   13.011729   32.971161
H   85.780907   54.002220   85.086723
H   44.013725   52.815872   33.935913
H    5.557204   41.639275   81.496429
H   90.054680   42.964806   25.477667
H   57.864983   98.380371   29.924820
H   87.089462   41.616173   76.403206
H    6.504386   48.761501   50.569611
H   83.154167   15.342041   67.182053
H   46.802776   71.706314   54.173698
H   91.346985   17.510143    8.667857
H   59.229755   97.328316   53.756012
H   47.116066   82.547714   61.588657
H   16.918869   45.687408   40.393021
H   59.997887   31.060061   73.030151
H   26.055101   99.766953   51.765419
H    7.071262   64.145317   14.665314
H   32.515942   16.145916   87.758751
