100
TIME:    4.715, STEP:  4715
H   98.466713   89.631874   94.829300
H   70.258583   60.364281   75.402405
H   60.801239   13.120093   67.999718
H   82.268005   38.393059   81.718269
H   52.939224   50.685547   37.860809
H   54.908253   96.099983   45.688679
H    5.857882   79.717377   59.172146
H   49.296593   96.509949   75.278770
H   37.724236   32.965454    3.293795
H   45.991249   84.083778   92.323090
H   61.677216   55.960758   85.576660
H   75.883339   60.029213   57.310051
H   43.193161   76.464653   56.515869
H   21.621994   90.542915   16.053186
H   37.853020   48.864410   24.126080
H   11.943851   99.337784   41.655212
H   44.954933   93.831909    2.613401
H    1.895165   65.400185   36.079540
H   18.706112   76.154251   11.767618
H   65.484215    5.687719   37.351723
H   84.481941   86.824066   29.271389
H   14.411987   50.343216   17.752441
H   22.791985   56.275429   97.447632
H   80.966888   93.230682   56.896973
H   60.948517   12.235924   71.361183
H   25.052691   87.268875   47.040676
H   55.499863   46.480808   93.519386
H   34.704006   76.519974   22.624132
H   13.694415   76.873772   34.290840
H   81.787628   74.143333   58.217445
H    1.618989   44.858471   36.343147
H   63.465191   22.242378   62.772881
H    2.474907   23.510248   22.561392
H   77.321274   41.621063   73.115883
H   63.569183    2.502153   11.839653
H   82.504730   54.727818    4.603903
H   32.029182   31.863251   79.988937
H   69.110710   72.667778   55.164951
H   46.051899   78.685966   87.393997
H   19.093485   70.781471    9.000319
H   13.015038   17.967443   53.429058
H    7.863373   23.469194   24.315073
H   51.853893   91.774399   42.043098
H   78.274506   91.786682   41.743141
H   47.663982   45.860657   59.585957
H   17.257740   52.848225    2.314841
H   78.570602   81.255272   70.726387
H   56.491222   43.932938   60.315407
H    2.856682   41.952991   56.392464
H   24.765339    2.496664   53.889999
H   43.184895   14.440613    3.130450
H   34.271904   26.222242   64.532379
H    6.674652   49.347900   29.028780
H   67.500542   30.274689   39.875633
H   65.379669   71.800789   40.450756
H   99.465744    7.574000   32.117081
H   95.163025   53.497444    4.423131
H   74.966934   31.614431   92.106918
H   62.137550   37.989883   49.510483
H   47.876698   90.198288   29.504768
H   57.126617   59.301090   46.776779
H   31.570108   84.055527   82.015762
H   94.161522   85.539719   10.148766
H   66.811378   67.447769   99.124954
H   19.468122   84.265076   34.656895
H   11.695614    7.876312   24.970922
H    9.274965   11.373179   94.701767
H   54.668495   87.192703   91.606865
H   91.896469   10.996490   64.517548
H   25.912573   85.293457   91.804688
H   72.309822   74.591263    5.587057
H   85.193695   95.043106    1.831551
H   99.563980   85.083260   40.856628
H   26.412857   51.005703   23.003960
H   89.500496   35.361576   58.827114
H   37.124039    9.759573   78.669266
H   95.046158   17.881126   74.435844
H   53.499599   42.418369   74.832481
H   87.614494   39.669285   70.291237
H   68.292664   52.165585   14.719656
H    3.137233   78.060501   61.793331
H   95.096855   75.020096   92.511742
H   16.108278   85.970764   78.976944
H   74.533585   15.631647   32.774506
H   22.748022   53.959885   90.686119
H   42.777020   82.244926   69.207092
H   82.058907   60.534012   48.372971
H   31.849798   27.799936   46.709259
H   53.533554   31.647982   89.628181
H   49.469707   15.286819   92.767715
H   16.979942   28.028652   33.033978
H   27.161139   50.092155   23.368872
H   87.694237   68.993553   83.622726
H    2.949791   99.231781   44.726505
H   75.071098   27.388565   24.431679
H   83.361237    9.541721   23.913277
H   88.348076   38.264706   66.024963
H   24.172728   56.383087   80.585533
H   84.101471   57.174809   50.106987
H   32.077724   57.636700   43.529629
