100
TIME:    0.145, STEP:   145
H    7.516936    8.724090   99.013260
H   97.236748   12.606419   87.147095
H   82.255737   84.335884   21.637329
H   81.500946   26.676683   32.214981
H   93.872299   84.379913   61.773689
H   25.767857    1.055837   93.105095
H   45.370548   71.129677    1.791693
H    8.489584    1.147075   94.880180
H   50.063622   72.352203   90.959648
H   70.877983   18.468937   13.366899
H   86.767487   72.076935   25.782665
H   50.307514   30.958611   82.608040
H   34.039169   52.934723   10.717422
H   47.902470    4.630198   68.275627
H   82.266533   57.069580   43.802830
H   95.693237   99.054222   21.003391
H   12.408421   91.586189   86.556801
H    4.243307   87.649185   94.519333
H   47.522179   84.436234   71.000626
H   88.724373    2.491941   26.080210
H   55.672043   41.782532   53.305916
H   76.251320   44.291321    6.908694
H   83.808067   93.442940   28.202282
H    5.569482   38.420811   96.305328
H   24.396879   74.673912   37.629044
H   45.990849   23.292210   75.580345
H   49.575695   36.449551    2.843660
H   20.306137   63.207287   71.568832
H   14.324101   62.247463   50.317749
H    6.553937   87.250931   94.916100
H   21.805635   35.045189   97.937950
H   74.912781   48.504135   85.840721
H   80.571838   57.873222   10.859700
H   84.228630   60.434296   65.642708
H   77.167625   47.959335   33.557877
H   85.162132   95.876152   20.145407
H   93.706718   99.224815   19.890488
H   57.995430   56.300327   32.673573
H   44.202190   77.412666   28.229073
H   49.535648   98.608330   49.442856
H   25.332653   61.154003   45.754757
H   18.589401   18.364367    9.612569
H   12.490582   64.369461   11.946999
H   70.100311   15.201821   94.909073
H   44.077560   26.170914   68.515564
H   76.099556   65.929985   83.886909
H   37.611134   33.562740   28.862249
H   56.247158   96.875092   77.549728
H   69.266045   20.440556   38.690071
H   28.930899   32.956387   73.522720
H   43.530575   55.645676   54.950871
H   12.179936   50.284439   64.544357
H   11.887121   22.849487   94.448372
H   73.327499    4.836388   38.214252
H   29.216064   71.216995    1.636565
H   93.747665   12.379856   87.690659
H    5.444981   85.362907   69.778130
H   15.262636   63.193123    9.820026
H    1.713739   44.895584    0.351309
H   49.452248   38.933273   59.480316
H   68.847397   71.826523    3.091134
H   93.764801   26.595718   88.793655
H   84.068443   97.265190   23.610565
H   52.996895   42.583244   23.203871
H   38.077057   49.263744    9.064393
H   92.437904   35.064777   54.759396
H   75.934868   53.374233   74.062790
H   70.349602   25.830200   73.134438
H   64.130974   39.367546   51.139225
H   33.324112   55.437813    1.425852
H   17.428255   85.538521   60.408360
H   62.010098   46.713280   67.238930
H   97.537018   11.135098   58.031597
H   26.999397   40.203983   94.590828
H   69.161423   28.850016   12.389777
H   29.085943   16.865313   86.172897
H   80.120392   13.976498   93.597961
H   38.792694   41.239201   22.447708
H   68.504433   53.075642   19.305256
H   92.414383    1.056717    8.429300
H   13.719526   30.781301   88.655167
H   52.203419   45.174515   74.655823
H   26.970665    9.677567   43.710327
H   60.145599   24.569431   50.186043
H   45.270241   39.814926   33.696053
H   47.959782   14.376616   51.853626
H   76.838936   92.810234   30.457348
H   58.289383   93.685112   94.231071
H   58.692329   86.099098   27.014637
H   53.515205    3.320982   29.395292
H   29.956575   81.260635   36.523876
H   89.015160    6.411951   36.287537
H   94.587883   31.976217   30.132620
H   61.243500   22.027521   36.595394
H   54.084858   36.741611   19.419106
H    5.898016   90.005669   59.959496
H   51.092766   76.001686   28.849846
H    7.397710   17.472260   53.715233
H    1.804697   37.475330   32.905819
H   48.246502   74.978645   83.720322
