100
TIME:    7.987, STEP:  7987
H   77.194084   89.575310   91.833694
H   79.895370   37.668171   81.711563
H   17.060144   48.520416   29.584461
H   82.817200    3.585228    2.367239
H   23.628653   12.950521   49.144394
H    4.159160   92.555183   69.726173
H   34.371746    0.657123   15.046970
H   92.123840   79.578606   74.854500
H   57.292168   18.375496   97.333405
H   56.606514   31.066484   20.442944
H   57.323746   87.617004   70.400497
H   51.001152   24.037411   24.405399
H   34.445335   78.542999   31.381151
H   59.612617   80.457710   65.055519
H   77.616096   56.594620   66.804962
H   80.382950   13.156858   70.050079
H   81.839943   10.249540    0.476472
H   71.863678    6.191649   22.657524
H   69.662399   13.416631   84.147995
H   77.331680   36.200703   60.124702
H   90.316826   61.087116   40.462437
H   28.101809   54.686844   39.111435
H   79.104240   29.665564    3.832017
H   76.950974   32.375946   13.889403
H   43.922798   52.751968   95.525734
H    9.948009   90.646713   39.270172
H   73.351715   10.466033   58.445484
H   58.620995   29.245855   30.779512
H   84.840248   73.735184   79.622612
H    7.250721   93.160904   18.332138
H   30.393599   38.265457   77.473061
H   70.061363   31.839222   59.867470
H   32.950146   84.115715   17.328993
H   15.571351   41.761757   35.270859
H   82.181236   54.942039   10.986750
H   66.933960   11.004937   94.316261
H   45.855991   12.033686   37.809597
H   33.875275   12.784580   86.061852
H    7.936975    7.394865   70.312752
H   10.907677   64.468094   66.436218
H   89.397064   30.235945   30.514738
H   27.113197   72.924179   87.710747
H   80.023346   11.399481   78.382332
H   69.345551   46.703819   61.660976
H   63.841621   16.767330   39.579498
H   75.026604   15.253940   15.609346
H    4.135621   59.198494    2.131687
H   56.675106   77.633499   62.767849
H   98.500557   70.966011   25.868767
H   93.428955   52.300686   25.081005
H   42.953167   98.549797   37.621719
H   93.296356   22.604158   49.740112
H   74.545403   68.320068   38.999275
H   91.732819   76.890686   84.261063
H    4.857700   58.548218   68.281082
H    3.543558    4.132174   20.730469
H    2.594006   59.084953   15.617751
H   31.326864   22.613871    7.827577
H   20.191898   76.248085   98.323837
H   31.959190   41.695965   36.441307
H   63.526745    7.139750   91.667000
H   15.443703   53.600204   33.967606
H   16.297569   62.264557   85.777893
H   91.492668   85.271622   10.290559
H   49.341576   22.935564   39.363831
H   10.694469   45.215843   18.438129
H   46.756805   24.494247   52.674847
H   28.649178   74.322258   48.027390
H   54.974480   75.891457   59.303352
H   92.236565   49.809605   84.903305
H   68.409157   51.966965   66.343178
H   15.557639   86.399803   41.489880
H   86.223480   23.242834   56.965366
H   54.380939   43.922161   28.592657
H   47.212570   40.075634    6.881399
H   14.473010   19.464188   58.504509
H   92.172569   34.505524   32.391487
H    7.223375   28.472546   55.533031
H   44.518074   30.058384    6.791218
H    7.835627   73.929588   32.833931
H   67.173851   11.911538   57.354996
H   40.634407   96.267456   18.812107
H   23.069738   40.688999   90.584290
H   99.642693   95.623779   33.928104
H   63.429749   49.285145   73.502968
H   67.473618    2.428859   96.424591
H    0.588451   22.632515    4.394269
H   84.481956   65.947510   12.765205
H   21.437515   49.468575   62.867439
H   60.181583   80.669571    9.733860
H   50.883656    4.707231    2.132691
H   69.256020   96.178497   85.711128
H   97.435715   67.169945   36.651550
H   19.178892   97.734947   65.349922
H   18.501102   34.302963   99.620117
H   53.615051   80.334351   54.910027
H   28.631563   26.036446   77.848885
H   22.860559   81.655861   18.542150
H   28.230614   71.292000   76.042839
H   35.314373   73.672562   28.327053
