100
TIME:    1.599, STEP:  1599
H    9.188755   75.384903   97.682083
H   56.791161   91.440132   78.864708
H    7.240191   88.942894    4.565080
H   81.744995   66.771263   52.517559
H   80.848953    0.924428   22.348717
H    3.220780   99.475777   37.099972
H   69.165398   69.310844   15.496742
H   94.208046   26.935917   61.380127
H   14.321526   32.556152   99.434944
H   31.142477   39.342628   70.306755
H   51.519943   30.581547   85.725540
H   94.809616    3.840400   79.110680
H   41.549797   64.965645   66.200493
H   75.908607    0.147321   78.924995
H   99.948997   27.197826   73.911026
H   37.232529   71.876701    0.310316
H   95.510269   87.741409   18.940470
H   35.314308   16.941513   44.112106
H   70.166298   45.434395   47.603069
H   49.437126   71.856064   25.199961
H   69.389709   97.031250   13.845066
H   15.670529   46.210434   83.103249
H   64.395073   81.617653   86.600311
H   70.477089   55.859226   88.318466
H   72.394646   59.358276   48.359917
H   39.327145   79.962952   39.298218
H   24.194866   76.009781   31.696669
H   97.623459   31.075619   19.626398
H   45.939697   94.166046   81.587090
H   62.305996   51.264786   10.504718
H   79.001869   65.435226   82.881378
H   66.719025    8.335347   51.236626
H   82.989334   51.491585   41.847504
H   45.663155   27.183815    4.388447
H   41.026176   38.048103   22.096748
H   11.581422   10.093229   15.142705
H   33.164200   45.977882   34.460148
H   97.902779   29.687885   35.278248
H   78.836075   46.374062   88.870224
H   12.585859   62.491138   63.841366
H   25.967384   11.048877   80.016281
H   87.912170   83.621971   77.923859
H   25.013960   73.088669   16.971085
H   77.252525   39.569626   37.075878
H   17.954491   68.800461   92.940506
H   57.458210   93.415260   89.663887
H   52.964039   11.996955   41.286568
H   56.324810   11.846594   67.514992
H   11.772099    0.021071   80.690079
H   59.425938   55.087200   71.827721
H   43.422626   15.270372   70.276459
H   82.841682   15.363459   69.091629
H   42.048988   31.280273   10.001743
H   39.662891   81.117546    2.376781
H   13.463020   98.681427   13.974777
H   95.566940   10.851475   38.193069
H   97.622238   43.408653    8.065659
H    6.992355   25.881939   72.368851
H   16.387047    6.329718   88.727341
H   53.500195   50.693119   18.130211
H   60.566936    4.212071   89.725365
H   42.159515   13.061485   23.004425
H   82.692291   98.113029   23.860695
H   52.840553   50.492653   83.727959
H   95.788551   33.134342   44.473148
H    3.116276   62.782021   40.730709
H   59.277908    3.645484   44.262585
H   69.911873    8.985284   42.644047
H   36.596474   34.892380   59.947357
H   62.776398   28.567713   98.366089
H   71.256737   86.604515   42.969944
H   42.122097   98.457199   73.693779
H    2.733402   39.212727   20.747555
H   94.998741   48.192291    8.175270
H   39.265900   30.918886   22.613155
H   63.463581   10.053102   88.337212
H   12.133440   87.956528   19.326845
H    7.104258   46.166458    2.745635
H   38.197456   48.818211   35.519081
H   21.107681   21.868608   83.165962
H   42.173206   45.824047   75.557259
H   61.298771   54.670242   53.070267
H   18.971363   33.944977   82.196777
H   60.168102   48.990093   17.378975
H   74.471268   48.866608   92.747421
H   14.488483   67.790764   52.822716
H   73.948311   87.092590   99.789474
H   81.695908   77.274857   79.122215
H   88.865669    5.142833   15.117451
H   24.965073   43.488976   81.377464
H   89.460182   59.771564   67.229691
H   96.596764   15.766031   63.987106
H   87.879311   75.541916   42.618332
H    1.776517   10.223374   34.631248
H   28.947128    6.500215   52.829552
H   25.992462   32.587578   84.858383
H   35.680893   59.443783   45.229324
H   12.736127   29.852203   30.452549
H   32.539207   43.742954   11.110874
H   38.544693   37.631306   43.679512
