100
TIME:    2.739, STEP:  2739
H   32.094391   70.841087   96.638382
H   25.080040   53.250015   50.775257
H   26.835722   70.958740   91.186119
H   81.936340   19.803579   90.029114
H   70.638077   92.300446   91.439789
H   85.546516   98.240730   49.998638
H    9.420048   46.288689    4.646267
H    4.606300   25.560442   56.708920
H   86.298088   22.949829   27.676346
H   99.992348   55.711342   14.945125
H   45.479919   76.452209   75.914597
H   51.302132   60.982574   97.964546
H   69.033394   95.993912   52.894127
H   19.461769   96.633492   65.680351
H   13.816677   25.368570   19.110613
H   91.394608   72.166107    5.680227
H    3.853004   63.132774   22.730326
H   59.676033   61.503075    4.587605
H   87.926613   93.256683    7.664692
H   18.726219   47.648075    2.816503
H    1.740562   83.541290   82.901291
H   24.970947   47.720047   86.027145
H   49.174431   72.346107   53.984650
H   64.558731   69.531708    3.650967
H   31.620762   68.944672   56.770409
H   34.099941   45.995090   32.445343
H   25.891422   28.619562   54.318890
H    1.433609   84.286980   57.310429
H   70.727600   97.595802   27.697668
H    6.019332   23.050064    1.131692
H   23.851397   67.666092   92.677986
H   38.699226   76.834969   45.701103
H   63.290295   68.084038   44.547707
H   93.829964   22.709641   56.361053
H   12.686980   51.872772   91.515022
H   10.699594   99.646965   11.224477
H   42.504646    4.226942   24.287657
H   50.782112    8.822559   15.725727
H   29.458565   21.738310   78.882935
H    5.210611   55.767906   53.533749
H   48.059772   50.163906    6.875639
H   85.455437   34.786125   31.481092
H   34.833447   79.924911   99.314934
H    4.455961   58.678055   48.538521
H   19.067999   23.824711   90.494240
H   42.750721   15.159016   94.290962
H   63.132259   73.793671   51.751450
H   56.385693   23.583883   38.051704
H   45.092262    5.606269   35.213989
H   83.328362   72.434502   92.095856
H   43.335651    5.210436   82.296417
H   38.242313    9.580082   94.250908
H   65.696892   37.890381   43.792961
H   13.265949   62.521576   52.680634
H   22.708244   98.620071   23.646864
H   96.993332    9.653393   99.384781
H   69.891319   10.514308   16.489281
H   22.104828   18.222801   43.006058
H    6.296714   54.498409    1.208288
H   78.272552   38.316952   85.706917
H   32.479408   51.194675    0.842631
H    1.701958    2.448349   71.424820
H   60.018528   20.374037   45.652267
H   31.121202   56.693977   52.779064
H   41.037952   42.084789   50.639389
H   33.083992    6.109084    8.136145
H   67.813393   43.056469   99.300430
H   91.164177   74.183350   97.142639
H   93.412804   52.979256   88.446999
H   85.876526   85.906807   95.965576
H   35.057701    9.037841   29.293377
H   48.123665   60.623032   57.159447
H   28.404131   82.824120   91.517815
H   69.915123   76.050903   40.421638
H   94.230247   32.542423    9.032448
H   90.408638   83.117302   11.630083
H   15.638052   89.148575   39.490406
H   60.663525   71.625191   65.706299
H   92.858414   45.473423   48.239815
H   65.199623   59.783634   84.953964
H   64.482132   57.617870   43.691990
H   46.834709   62.115311   57.744118
H   91.096542   52.975128   90.776184
H   38.589214   46.541351   13.252380
H   18.962738   77.558914   82.237160
H   88.252319    9.661621   31.987804
H   50.086342    4.205322   54.149429
H    0.047645   86.003555   67.259804
H   12.524435   41.668617    5.791288
H   24.173828   96.583939   22.130943
H   36.113800   21.330326   91.304398
H   80.949341    1.495532   85.713478
H   61.023487    9.703934   30.812206
H   11.962013   79.373970   11.495759
H    9.234222    4.385918   79.026451
H   20.151794   87.571602   25.976242
H   45.193161   24.865948   79.667061
H   16.921324   39.558624   12.209974
H   78.233879   48.657047   15.617554
H    9.342453    8.349735   33.881134
