100
TIME:    5.357, STEP:  5357
H   55.050209   30.757111   94.241531
H   52.527565   95.150894   15.881114
H   71.840073   59.307907   60.464184
H   82.375763   11.941616   46.528091
H   47.188889    2.144664   20.454689
H   44.950474   95.404457    9.267580
H   72.208672   23.067570    9.377458
H   98.836655   52.049778   16.331417
H   21.942650   71.239655   62.884270
H   28.446856   93.301949   17.463232
H    1.959941   81.793182   23.736477
H   51.380661   92.209541   11.612139
H    2.225706   37.642540   92.723320
H   89.834587   88.564095   64.911354
H   45.660545   91.518906   93.265808
H   86.130020   43.186295   88.363007
H   93.328957   36.294445   61.057190
H   15.623460   34.164967   13.824705
H   28.705524    3.084343   45.588802
H   48.188705   92.052528   81.062111
H   46.384743   22.910881   11.846500
H   75.961151   51.195480   63.080246
H   14.220105   51.054085   79.079865
H   21.315109    0.913546    9.215245
H   37.986359   61.323929   76.102516
H   22.126093   68.293747   86.669632
H    0.138356   19.792339    6.256474
H   80.533394    6.486336   43.847473
H   27.654121   35.120609    3.944574
H    6.404969   58.253990    9.254982
H   26.886360    2.428622   85.550148
H    4.001557    4.505788    3.339732
H   47.697567   76.538872   80.397820
H    4.447001   82.785698   46.068733
H   47.611267   53.972000   50.931160
H   38.312122    5.011602    2.584458
H   93.605194    8.350060   30.575848
H   42.576916   60.920918    0.471114
H   18.950871   64.697075   25.178965
H   58.623127   10.678549   59.513012
H   69.138733   39.994072   68.554298
H   50.163841   52.283821   54.472500
H   57.383816   95.624283   88.415718
H   37.280842    2.559832    4.515558
H   91.975700   20.532730   14.523372
H    8.973970   65.093399    4.924571
H   83.586227   16.169743   76.888161
H   56.525509   50.545334    0.038765
H   21.621361   88.783325   30.780567
H   38.230137   12.268316    8.989380
H   43.135914   52.459869    9.898360
H   65.472618   66.650742   22.384537
H   19.991711   53.070435   91.742729
H   52.633743   19.797714   68.206078
H   14.262547   28.066557   45.912106
H    0.267837    6.898679   10.261887
H   35.862160   34.972939   65.482719
H   27.162006   70.985069   75.571030
H   12.772503   65.115578    0.222883
H    5.512976   39.545300   11.244759
H   97.623871   29.447136   96.722679
H    8.786730   78.079880   52.968338
H   37.747028   41.731369   66.124878
H   10.894732   70.944992   81.697617
H   44.951584   32.989101   94.442757
H   72.257042   75.960777   62.930977
H   57.766479   33.568363   25.698673
H   10.321200   23.910139   22.298178
H   23.893835   64.866478   24.250565
H   38.918098   17.583340   90.452820
H   51.924049   30.910263   97.885841
H   32.258278   73.736496   48.836784
H   57.705063   53.325813   24.394211
H   12.281910   10.374897   84.859123
H   20.454214   36.277515    7.494639
H   52.303162   50.906944   35.471516
H   53.336407   62.238071   85.789574
H   83.661926    0.438757   10.285890
H   18.401363   37.783527   77.452217
H   36.809296   17.197144   59.410889
H   15.699799   84.702286    0.164813
H   43.268890   79.211807   38.828049
H   56.718185   96.707336   40.117565
H   18.703356   70.569138   74.137268
H   91.487251   13.800666   28.451225
H   27.999538    5.824847   13.789689
H   24.936651   13.855392   78.985916
H   42.184288   76.401611   40.033958
H   66.856308   95.903511   84.377449
H   92.707642   88.873581   15.717768
H   43.253197   62.692585   46.591839
H   74.662651   98.377319   35.599365
H   28.847368   88.256935   33.269611
H   65.000465   38.176098   88.013481
H   63.972069   69.882957   39.183414
H   36.387848   84.189911   90.752747
H   37.388542   75.107994   29.103302
H   26.528700   61.849335   70.309380
H   53.517914   59.942219   96.331413
H   71.953903   41.164486   81.684082
