100
TIME:    2.058, STEP:  2058
H   78.148346   33.292160   97.261856
H   44.023262   16.325865    7.818140
H   15.129995   21.964596   99.176979
H   81.822037   47.861046   27.356789
H   76.737732   37.715290    9.904314
H   96.104012   98.978508   82.556602
H   45.110149    0.302616   51.391136
H   58.131554   66.644104   19.234856
H    3.038410   88.425003   70.544334
H   18.600451   45.933189   88.278465
H    8.824875   49.050526   41.512432
H   77.293152   26.847368   46.438026
H   12.353454   37.195641   20.580738
H   53.181328   98.732521   13.854237
H    5.532458   86.198578   51.847176
H   18.777142   31.729012   62.209732
H   58.607330   18.095833   60.729095
H   45.123108   94.619942   28.199089
H   77.317162   64.691177   71.784760
H   37.071945   62.107479   56.450844
H   42.151993   51.337589    1.387090
H   59.682316   46.816261   44.020340
H   58.266762   77.884636   73.468216
H   27.831047   61.364201   54.230042
H   55.977776   22.956108   51.746246
H   37.222507   66.284561   96.276131
H   84.615395   56.930172   40.805088
H   58.892998   52.500195   34.798023
H   55.920090   35.809517   59.889366
H   79.906502   39.904648   46.993404
H   97.057625    6.596724   46.561436
H   95.700684   95.653496    8.744667
H   15.320042   17.909176   83.197845
H   65.056633   85.119400   85.051254
H   29.616646    3.351037   50.045349
H   51.489880   46.151150   13.565103
H   77.187531   29.168505   70.627686
H   78.929527   21.286846   67.667641
H   58.205856   36.575279   44.876640
H   69.352028   19.519930   99.952896
H   94.600334   26.798635   90.830124
H   46.659882    4.220727   99.488510
H   28.967596   75.841156   50.124290
H   47.941689   47.263283   81.954025
H   78.138786   50.691250   32.219177
H   51.536510    2.169971   91.526894
H   57.806835   36.759171   45.209991
H   56.349323   16.572397   95.915337
H   25.187849   62.004726   62.381874
H   69.050804   62.073475   39.725025
H   43.387608   70.956841   75.116074
H    5.148336   72.772736   38.958439
H   51.570633   33.941711   83.344658
H   29.034649   73.630501   22.629992
H   76.923279   38.920238   17.869337
H   96.141251   10.369089   22.567627
H   26.720224   30.164497   51.720406
H   72.814056   82.534714   60.546463
H   52.586105   25.724512   53.490257
H   23.212330   85.972504    5.075891
H   89.520584   82.865059   53.937016
H   25.869373    8.788301    2.235162
H   13.825253   66.813118   92.371262
H   84.358826   52.989502   71.268227
H   14.006881   96.474609   87.218842
H   74.919106   39.963692   67.870369
H   22.451555   19.513746   66.422562
H   38.205742   35.237000   64.586899
H   59.474335    1.911574   31.158302
H   72.076965   51.655426   97.399567
H   56.681862   55.373672   37.464970
H    4.276137   83.223969    7.298382
H   72.806091   16.509960    8.977695
H   84.899284   19.144873   80.895500
H   61.394356   31.571989   57.408428
H   74.312614   39.471191   57.451267
H   53.808624   48.173637   27.445982
H   28.668911   16.152666   28.095455
H   60.199844   47.473484   40.638847
H   98.597054   96.870544   43.622597
H   51.155560   50.572613    2.990964
H   95.736649   57.667862   14.688738
H   48.012554   41.607117   25.914097
H   91.741585   88.267311   75.454315
H   52.122192   20.154594   48.252380
H    3.923444   84.648872   84.696938
H    4.603903   53.719559   21.676817
H   89.084900   40.526001   74.346626
H   98.390816   79.586235   11.362547
H   84.383743   24.603271   97.787331
H    8.244507   84.557358   76.922928
H   30.558870   50.286015   72.734825
H   17.329216   89.297348   78.127518
H   46.141758   38.065548   65.577644
H   21.010090   65.387512   63.377251
H   63.903946   14.463406   61.150574
H   99.248367   85.785011   18.832062
H   14.421412   33.760315   23.107330
H   10.674889   45.721523   72.661026
H   67.050095   25.841351   99.470612
