100
TIME:    8.927, STEP:  8927
H   13.625718    3.373284   90.973099
H   53.934067   88.604797   40.981030
H   33.217831   16.148064   18.550907
H   82.974976   64.858086   50.844185
H   15.205572   88.295670   23.657593
H   89.584839   91.536812   62.817566
H   85.105751   64.133186   88.556190
H   18.241699   60.899822   88.546104
H   34.185173   27.997963   38.164318
H   30.931925   44.563496   57.248878
H   69.887238   25.438686   79.855232
H   15.121483   71.155022   57.495293
H   74.504456   21.648621   37.966751
H   13.070079   77.560371   36.589008
H   89.033333   72.629189   21.601730
H   42.588455   30.941002   92.021545
H    6.250743   72.421547   86.048378
H   91.962204   60.451118   90.072830
H   84.306870   52.853428   33.670513
H   52.004879   16.239222   24.124231
H   34.535881   67.507050   14.950548
H   18.220530   55.934708   59.061768
H   66.553886   22.024191   76.938141
H   89.610886   43.621063   44.077724
H   10.304204   78.204956    2.466693
H    5.514833   62.935532   50.812054
H   92.293678   71.393692   77.093857
H   79.306976   73.121887   61.854050
H    5.279709   59.019192   35.187187
H   43.293312   69.896133   93.059875
H   67.391228   22.557388    3.103254
H   29.413410    5.870121   72.846977
H   99.162003   15.340645    2.011616
H   55.289307   55.616394   95.671867
H   58.787376   83.770851   68.179825
H   48.646122   84.633041   91.361549
H   36.014618   77.608650   11.877929
H   95.023384   95.582909   52.393883
H   68.262291   86.913963   79.219940
H   22.370169   76.467949   40.392441
H   25.153978   62.486771   52.660732
H   47.895004   76.610397   35.700237
H   88.112946   17.038506   46.278873
H    9.326015   62.488182   53.568264
H   82.304398   79.686714   20.019033
H   62.892860   33.179668   19.428240
H   11.484519   10.318632   11.158846
H   56.732479   87.315201   20.929310
H   25.975716   93.116615   88.372284
H   13.161690   66.609398   59.357975
H   42.888622    7.799023   47.532913
H   38.981686   35.379436   88.033913
H   94.037895   73.770508   84.406723
H   69.959747   61.556595   25.739563
H   30.014286   40.924553   76.270279
H    4.714327    3.143386   88.730637
H   62.183479   31.961845    5.019393
H   61.332947   33.842583   83.615501
H   94.331642   15.966191   26.159418
H   69.927818   13.946492    9.705467
H   22.822695   63.422459   18.377399
H   82.081230   44.850815   91.436165
H   80.115219   98.120140   21.319275
H   56.041904   90.392166   84.771454
H   86.651215   47.859722   26.901606
H   52.949135   98.486107   74.018272
H   71.338486   56.989735   98.056931
H   63.716797   28.082573   92.964828
H    1.821185    8.349037    0.345830
H   11.327727   97.025467   82.909592
H   38.554714   88.006340   55.069374
H   38.150513   55.188866   10.391839
H   24.934723   76.743919   32.861515
H   33.690784   84.429787   72.741707
H   92.494247   41.459759   78.152832
H   36.697769   79.710442   95.255905
H   77.544754   53.146626   49.065529
H   51.380779   67.011665    7.453565
H   89.595848   27.297306   17.281740
H   61.736809   22.723494   51.852165
H   85.576256   21.636271   13.537953
H   11.171448    2.365773   40.171112
H   82.526955   56.409214   80.105629
H   64.311134   76.061867   48.073254
H   17.660400   90.483322   82.381180
H   45.837955   36.957191   61.701187
H   63.368992   54.286537   49.217033
H   99.599754   90.727150    3.018815
H   40.946293   97.131691   55.179451
H   77.072586   41.996056   43.334991
H   89.352287   55.461262   21.984032
H   38.806499   66.875137    3.624509
H   57.691395   95.368797    9.343196
H   10.025606   54.763660   28.731596
H    2.246919   50.103992   21.218870
H   31.255219   43.213989    6.357729
H   54.018913   79.981056   23.788586
H   21.046137   28.168762   99.669945
H   83.451439   75.351143   97.306862
H   93.702271   49.551495   37.774014
