100
TIME:    6.361, STEP:  6361
H   87.154129   38.685997   93.322342
H   24.799679   49.558140   79.187477
H   89.105515   31.539230   48.675579
H   82.544281   70.576996   91.494507
H   38.196152   82.619629   93.233170
H   29.377872   94.316750    8.697060
H   19.590637   90.862419   87.891563
H   19.924240   38.908985   24.147694
H   97.262352   74.709137   99.683830
H    1.017966    7.718448   56.776615
H    8.570297   22.190954   27.026115
H   13.058121   42.534565   40.145699
H   38.158218   76.928047   92.960625
H   40.121758   85.469490   41.315434
H   57.866707    1.836956   45.001591
H   45.762283   55.372719    5.022141
H   12.593402    2.702449   52.455269
H   37.094158   85.312912   79.019569
H   44.340214   45.206085   98.485489
H   21.141556   70.727333   49.419060
H   86.805969   22.959499   84.594215
H   72.215607   52.528305   77.580383
H    0.813763   42.888618   50.355194
H   28.029015   12.924288   34.650028
H    2.079166   81.700897   83.517311
H   17.549295   38.612694   92.257530
H   13.562378   78.058731   26.179052
H   95.819473   53.349678   77.034866
H   49.484871   26.211498   56.484009
H   44.901615   33.405235   89.070175
H   66.402885   92.458961    6.116882
H   67.394684   76.762680   10.394386
H   18.417068    3.081759   70.846069
H   46.869560   90.775101    3.773163
H   22.648575   78.053108   12.058612
H   25.588305   83.649345   99.427284
H   89.901711   71.581665    9.687201
H    1.082001   42.544788   71.318748
H   76.573395   42.820366   27.883852
H   64.057327   16.687542   38.504650
H    0.522894   74.443016   92.208107
H   64.143539   66.547806    4.700724
H   66.030060    1.645566   60.934700
H   73.171448   19.411947    2.681095
H    4.886505   80.918900    0.437748
H   96.016533   84.243179    9.003473
H   91.429977   70.770706   86.524330
H   56.579128   60.886215   62.160557
H   50.966484    5.632670   90.730881
H   59.291019   27.550806   38.770737
H   43.064816   55.530136   20.481632
H   14.266808   73.486725   56.476143
H   40.819012   58.891968   33.431461
H   29.385910    3.414634   12.509940
H   34.323112   16.052315   54.452908
H    1.518377    5.842568   76.083344
H   99.512642    6.002490   60.971489
H   52.402252   76.169456   49.711166
H   91.955795    7.537190   23.148842
H   39.258080   16.715260   82.688622
H   60.957478   82.755386   18.442837
H   73.153603   68.734787    7.537747
H    5.908264   73.219765   97.277588
H   79.838669   76.414169   54.440960
H   84.802109   52.802349   87.940956
H   10.580761   26.048790   22.295805
H   77.213394   68.276367   74.171097
H   40.968071   81.329384   70.295181
H   73.934517   92.725449   61.283268
H   59.255165   68.083427   88.338684
H   20.042057   62.598724   85.844460
H   49.473103   40.415878   22.344070
H   92.241669    3.666603   98.649719
H   90.179573   46.831074   25.204165
H   68.858879   37.709919   83.604752
H   76.037346   15.252785   67.913666
H   44.497646   75.240501    3.554821
H   30.831676   34.789871   65.735558
H   66.544319   34.834461   88.651009
H   87.575943   62.505928   72.915367
H   35.347443   95.089127   60.171009
H   18.621679   85.722870   54.842533
H   20.222054   13.496659   35.733055
H   87.776161   56.483788   82.437889
H   42.601692   51.001823   31.124680
H    4.889713   42.704605   83.510269
H   91.991524   40.856270   26.860495
H   58.331383   96.059875   29.624138
H   87.691269   40.001472   76.166023
H    3.940347   47.568287   51.606178
H   84.340965   16.907955   67.794479
H   48.948483   73.887421   54.726166
H   93.205948   18.380329   10.910472
H   62.032360   99.087715   55.711441
H   46.614708   79.950211   62.255070
H   19.314148   44.542206   38.895142
H   57.695976   32.724258   71.362350
H   25.999125    1.201887   51.183304
H    5.689789   64.270546   12.236183
H   34.317158   15.401733   84.965218
