100
TIME:    9.145, STEP:  9145
H   98.883453   83.381630   90.773514
H   47.913254    0.416947   54.727444
H   36.965038   31.831284   15.992060
H   83.011566   55.876762   38.894035
H   13.252134    5.769276   17.747383
H   86.205200   91.300636   84.406097
H   73.679512   78.852577    5.604092
H    1.107330   79.760330   68.531059
H   28.826317    7.037552   24.441648
H   24.976809   47.693653   65.784462
H   49.609406   34.209824   58.855568
H    6.800453   82.082298   41.977562
H   60.603363    8.454153   16.302864
H    2.276275   76.888435   53.179508
H   91.681160   53.156349   11.118530
H   33.823349   11.873895   73.925842
H   88.720436   86.841560    5.893781
H   96.625839   49.843178   82.515213
H   87.703140   61.999409   45.154964
H   46.132092   11.609682   38.966698
H   21.599449   45.804115    9.033442
H   39.120403   56.224106   40.497040
H   63.643272   20.252043   70.701111
H   69.356339   46.228973   27.886606
H    2.507521   60.917274    4.075946
H    4.486555   56.508896   30.296453
H   73.496101   62.332226   81.418198
H   60.912178   83.297394   69.059563
H   10.020148   78.798058   24.882526
H   51.652596   64.500687   10.390083
H   75.970055   42.105473   85.855804
H   43.178120   99.847397   52.665611
H   14.517916   99.391190   21.650778
H   64.500153   35.637939   86.487633
H   53.361992   67.265175   81.442245
H   67.596710    1.707625   90.676308
H   56.922806   69.625252   29.055441
H   86.012123   91.594536   67.777306
H   59.060528   82.163841   58.093872
H    1.837045   56.059738   57.545105
H   10.255793   69.967545   57.796719
H   29.523209   77.465286   46.828762
H   89.989044   18.346619   62.024464
H   95.407265   66.147926   74.883125
H   63.393776   71.087929   38.674702
H   60.080376   37.337688   20.313898
H   13.188891   22.174810   13.252409
H   56.745785   89.560532   34.417927
H   32.347466   75.060829   79.677032
H   17.737432   69.929161   44.114674
H   42.873653   86.752480   49.831467
H   49.576321   15.150532   73.723671
H   98.558495   75.034546   71.746384
H   64.910248   57.998993   35.359016
H   12.656216   60.029823   78.123093
H    4.985846    2.914071   81.309402
H   76.004517   25.671593   25.753164
H   45.100037   13.254637   78.000511
H   11.525402   25.177870    9.423388
H   55.542049   30.703312    3.505028
H   36.575207   53.285206    1.381047
H   74.343987   42.821701   81.573341
H   94.914444   83.244408    6.370361
H   71.011658   91.579697   78.853760
H   95.303223   30.447598   47.202930
H   39.556984   87.648643   86.908134
H   53.848190   64.525848    8.582268
H   48.658112   40.550240    3.386490
H   12.686605   92.684967   86.674225
H   15.755187    7.975115   82.447220
H   31.630825   73.173851   52.454811
H   20.198961   47.950584   26.370964
H   10.720793   65.959679   27.271473
H   28.892429   70.631813   59.788643
H    2.995514   41.780758   94.681793
H   41.852051   93.681389   80.586411
H   97.343582   34.277531   52.932487
H   61.621151   52.757973   19.493538
H    0.050767   26.656971   19.715014
H   51.045708   10.847538   33.071220
H   89.844048   23.891581   26.567604
H   27.529808    3.780955   21.933577
H   96.314949   60.054966    0.865852
H   79.309944   94.716408   28.162991
H    7.045807   76.845016   61.248459
H   40.820057   44.965538   76.839706
H   77.928719   38.436165   59.612083
H    3.105549   73.283424    0.758591
H   45.470219   84.993599   53.396492
H   57.798794   33.026375   51.127121
H   98.273735   67.232239   26.587791
H   54.936291   83.271042    7.777738
H   71.665665    1.908997   26.201471
H   31.094294   67.989487   43.430843
H   98.477692   30.576267   26.227621
H   49.261108   34.605225   95.097580
H   36.714897   92.491707   11.250650
H   20.625345   38.954960   95.292381
H   73.066368   76.292519   79.048164
H    7.243445   43.958126   16.772686
