100
TIME:    7.307, STEP:  7307
H   23.179529   51.933846   92.456253
H   98.675888    0.818299   38.834980
H    5.371461   99.599358   37.567989
H   82.703064   31.602959   39.641262
H   29.721945   58.445614   67.582504
H   14.705043   93.291878    2.382473
H   70.008911   54.742313   61.870068
H   45.570503   20.750629   37.289520
H   74.007866   83.755066   40.137325
H   75.179512   21.302691   93.816353
H   20.575684   60.255558   35.902443
H   76.954071   89.952927   72.808922
H   77.806541   19.702511   98.957405
H   93.282661   82.553658   13.305439
H   69.356819   17.335564   99.510040
H    7.724250   72.632019   26.496328
H   36.521706   65.270676   38.573391
H   57.324551   39.280289   46.227585
H   59.070942   84.890808   48.322018
H   95.655655   50.638874   13.827097
H   30.668976   28.782364   58.916111
H   62.909546   53.784134   97.019760
H   88.183220   35.194862   23.288755
H   40.132294   24.241182   64.393555
H   68.244087    6.677650   90.503761
H   13.154186   10.691700    3.261012
H   31.987791   38.733658   44.951527
H   15.998567   97.505775    8.302110
H   70.054482   12.040388   11.766588
H   81.176300    9.991503   64.274101
H    3.630766   77.288010   31.272423
H   27.125576   50.624928   22.818443
H   85.052376   33.866951   56.069221
H   86.839561    4.079813   63.918930
H   99.104454    6.427579   69.616608
H    7.822909   57.744492   96.453712
H   80.635056   36.938110   84.228424
H   61.978607   25.230228   38.075760
H   36.641750   22.209166   36.209381
H   74.955132   28.126184   12.933656
H   35.869385    6.905530   14.494352
H   84.419716   70.257553   52.994373
H   74.171295    7.320425   29.266125
H   12.767775   35.290245   95.175529
H   22.828026   43.594418   81.389595
H   83.804680    2.286320   12.846743
H   98.820602   22.217827   95.603828
H   56.633602   70.629715   20.693264
H   78.620186   27.284367   52.996170
H   79.151611   41.950649   72.627602
H   42.999859   64.199860   30.452480
H   60.248867   85.703491   94.377563
H   60.443142   64.377197   78.490242
H    7.481079   87.982605   54.253738
H   59.000809   98.954933   62.500317
H    2.696619    4.847468   43.879272
H   59.482616   78.705925   50.943993
H   81.961594   86.831169   25.344213
H   66.563042   47.514027   50.526970
H   76.831581   89.428116   55.782127
H   20.631769   38.762215   44.684250
H   39.578224   59.929550   64.737442
H   70.133842    8.666175   32.407532
H   44.798641   81.567398   28.754208
H   22.349400   77.246918   76.037941
H   52.466827   79.020775   78.230713
H    1.313744    0.985520   19.844297
H   75.621223   35.433098   15.519454
H   21.081352   24.751907    1.949376
H   78.426140   15.657063   86.345566
H   90.001564   98.233444   74.498695
H   71.553047    8.978431   91.646675
H   30.561621   56.877239   74.399231
H   69.350136   86.959290   68.996490
H   14.457002   39.074352   55.323322
H   98.396873   75.883812    4.261615
H   30.414688   93.360664   20.331923
H   75.276474   72.934410   17.977182
H   11.911403   32.055759   99.202858
H   41.182449   10.972344   91.416695
H   53.861473    4.876626   16.712296
H   89.608162   91.857666   75.700066
H   80.059639   29.316931   25.824760
H   52.858646   37.435299   96.036186
H   96.539490   91.824852   39.420601
H   83.120590   77.453629   49.203522
H   55.172794   72.074043   71.969292
H   73.545677   20.360102   19.815681
H    7.323625   87.330513   68.428963
H   20.301527    8.644810   85.424301
H   23.055286   67.987175   87.772263
H   18.942904   45.035309   72.751534
H   53.846241   46.766392   84.066109
H   53.459122   56.480064   19.498545
H   30.259678   95.212479   83.993896
H   97.449799    7.186897   90.032707
H   82.607231   87.013596   16.956535
H   24.173120   48.009037   32.194305
H   60.624413   68.355598   32.999561
H   93.077644   91.124954   93.833420
