200
TIME:    0.820, STEP:   820
H   27.293242   60.550098   25.257217
H   33.133606   41.345497   13.443267
H    5.981387   94.524658   73.916313
H   37.393173   83.752937   29.332840
H    9.052135   98.429260   45.319496
H   70.750183   37.072884   48.382256
H   11.762389   54.892601   60.877712
H   15.886102   13.930953    4.485053
H   10.982401   78.811005   33.570324
H   90.444107   66.773979   73.194954
H   32.409618    6.983975   11.290215
H   33.176178   57.503876   40.378212
H   25.409557    6.257473   37.520317
H   76.990150   55.653988   70.214409
H   91.619644   76.409462   41.551514
H   12.394608    2.068901   41.811180
H   11.491349   34.882648   87.271645
H   22.789955   11.049924   33.194515
H   84.323059    8.704145   51.021965
H   91.901497   71.739586   14.987023
H   65.045677    5.711183   99.268372
H   77.116737   70.983864   48.223770
H   77.636894   58.324387   35.219429
H   20.893272   93.347115   89.767387
H   28.456192   36.030693   24.714397
H   18.180975   88.076645   87.800514
H   10.127868   70.434639   72.401871
H    7.821511   94.055672    2.257412
H   35.497074   38.900337   34.942139
H   66.839859   36.302105   78.562729
H   12.604256   75.680824   16.903927
H   21.378948   77.100082    7.883179
H   13.109169   21.465593   80.263657
H   77.230690   64.210701   48.428085
H   20.154409   65.834946   29.806765
H   14.115355   36.697693   86.127327
H    2.911385   61.910538   90.309181
H    4.225982   59.758442   89.089966
H   31.604340   25.631989   57.324013
H   84.520462   37.303387   41.040131
H   80.676888   78.129410   20.775780
H   42.208328   30.944544   22.632584
H   66.258743   74.458107   71.864998
H   35.989151   91.403755   39.491459
H   48.594406   93.990921   65.294395
H   32.897789   98.744118   48.995785
H   90.904022   97.796326    8.895217
H   75.995491   65.541756   26.796829
H    9.511039    6.742203   61.584499
H   41.361706   20.418921   81.175201
H   64.410934   63.154961    4.883047
H   98.966911   45.680889   76.011513
H   67.820763   77.835808   15.507280
H   13.774286   94.423386   90.292183
H   52.648727   63.485916   72.015572
H   97.870781   58.060654   97.640533
H    3.775258   18.940285   43.432972
H   73.745346   72.062515   94.834465
H   15.942583   85.681686   21.154240
H   29.688755   92.732338   56.272339
H   48.541084    4.060450   25.290340
H    0.360884   17.798861   53.512703
H   87.426163   37.221100   65.317352
H   38.179375   65.979820   16.617317
H   80.671951   84.725616   41.647205
H   15.987533   39.094231   43.288712
H   64.510109   10.927604   97.818153
H   94.093437   92.768593   98.754555
H   37.152893   13.691115   54.638649
H   41.898266   51.739010   50.951618
H   58.210724   86.623718   88.795563
H   15.839725    8.576703   40.704845
H   95.901993   35.690258   80.074219
H   26.761190   96.215965   77.458168
H   86.207413   10.260428   40.341141
H   67.973946   98.600166   59.087418
H   92.976105   51.542221   63.941517
H    5.072979   16.531424   28.134468
H   15.942347   55.530907   22.084913
H   59.535488   87.432236   66.755524
H   67.984642   20.299459   92.522736
H   52.139996   58.159168   69.926933
H    8.736854   20.028414   73.309654
H    5.760334   80.825356   12.754872
H   18.254303    5.457131   41.345352
H   41.007202   65.481049   15.709089
H   61.850166    3.992701    3.101039
H   70.508186   96.957611   33.318459
H   83.438675   73.468887   79.259521
H   20.539085   12.045084   48.484585
H   16.930077   39.899738   78.174683
H   80.015358   93.624268   11.023319
H   74.813126   10.320770   79.211121
H   34.019642   73.596092   85.030418
H   39.821007   49.080589   92.096123
H   45.252907   40.676903    1.791412
H   87.173332   94.217491   23.308342
H   93.230705   37.840397   54.551788
H   23.875511   63.967941   54.936684
H   77.289116    7.351649   27.392008
H   35.743801   96.462769   96.251198
H   12.139066   85.431442   62.665291
H   35.202255   15.973132   38.607525
H   49.745262   69.010345   13.195399
H   24.569887   19.850586   43.891781
H   10.385271   98.376297   16.735834
H   90.853401   36.908939   53.093212
H   61.333332   56.543434   96.314217
H   87.536400   32.768410   27.178547
H   22.998400   19.973612    8.375933
H   54.825539   91.026649    1.203923
H    9.282352   77.930359   97.117760
H   47.020416   87.005157   81.319557
H   61.259453    6.893290   59.997910
H   44.495094    6.120323    6.435981
H   90.368599   88.830940    5.099845
H    8.728183   16.609732   90.941574
H   37.828457   55.544682   22.384880
H   40.888680   79.489273   54.874897
H   86.088875   58.250790   70.979752
H   46.608040   25.613651   68.514244
H   93.263916   13.740253   65.248779
H   46.219551   97.360550   41.235439
H   95.532227   46.447731   92.465935
H   59.561333   94.592003   73.630547
H   68.971313   78.221100   14.332680
H   80.969826   51.898056   48.655167
H   62.742058   92.118919   39.901104
H   99.605324   31.489025   71.672646
H   95.857529   21.400284   76.382744
H   72.021889   64.476471   25.576412
H   59.437584   91.803940   23.004810
H   90.543831   10.812845    1.690136
H   72.480774   27.873516   56.845287
H   33.078465   90.882782   29.764816
H   46.910233    0.882474   75.136833
H   69.852951   88.042488   84.212105
H   96.165550   46.111439   74.034096
H   61.473450   52.444748   71.412910
H   43.762123   81.273521   79.341461
H   79.331802   46.012314   33.645569
H   30.537613   58.633583   59.767628
H   36.360558   67.435707   79.821106
H   31.136238    5.532627   87.735634
H   67.564667   50.531387   68.034302
H   67.191765   71.967941    2.067865
H   58.448906   94.237816   43.128986
H   26.815193   51.828880   65.497337
H   80.690643   40.576271   92.178619
H   27.950745   95.007042   68.292068
H   55.777390   71.160110   46.965611
H   58.202576   91.060631   29.976440
H    3.119921   10.151424   83.104599
H   25.241798   14.455915   61.619419
H   36.611729   69.197098   71.245689
H   80.719963   44.967045   71.905945
H   65.382431   78.278061   87.623459
H   54.292145   27.354019   23.312351
H   85.836113   99.548813   81.094948
H   57.177067   33.278656    0.499030
H   59.653198   60.846001   67.994591
H   16.371721   20.050587   30.519333
H   90.185478    9.282009   36.990887
H   32.564545   37.218311   46.384689
H   53.400749   41.768768   15.523455
H   21.906563   45.984631   59.131275
H   64.912498   88.185860   58.370304
H   24.138882   57.321342   71.996475
H    1.954377   26.284033   35.487381
H   52.941383    6.082788   83.871979
H   68.284668   12.531363   35.927399
H   26.125994   43.903908   59.239197
H   48.879379   52.531345   74.104446
H   64.083908   60.665657   87.695847
H   44.480469   90.673447   71.959846
H   18.812248   50.796623   23.850815
H   29.459415   71.040375   11.169510
H    6.870465    9.753990   72.296585
H   60.768322    7.896108   62.351780
H   58.710777   60.676720   94.566917
H   70.828674    5.974240   28.234272
H   30.926390   30.814053   90.790024
H   38.929226   89.554871   17.557968
H   64.111916   26.293560   98.527870
H   93.023422   63.177979   76.007309
H   11.402424   41.117874   86.857033
H   51.547913   94.590004   12.116575
H   62.556519   91.792427   45.821678
H   89.821327   63.759846   73.172134
H   60.160675   55.118252   73.030899
H   75.526794   11.835121   75.159615
H   42.898201    0.691252   17.236769
H   16.983574   31.322433   71.093605
H   24.970972   86.678558   45.002048
H   64.990738   28.349045   19.919044
H   76.744156   11.806652   21.620090
H   13.316604    1.374668   23.043196
H   12.053244   85.878929   30.609520
H    4.178878   13.234781   52.077431
H    1.958371   15.342392   89.690781
