100
TIME:    9.216, STEP:  9216
H   94.081940   76.870552   90.708511
H   45.952347    4.264482   59.204487
H   38.185459   36.939384   15.158539
H   83.023483   52.951653   35.002014
H   12.615923   11.460131   15.822485
H   85.104492   91.223717   91.437195
H   69.958122   83.646507   11.156384
H   95.526871   85.903061   62.012230
H   27.081001    0.211024   19.972460
H   23.037298   48.713108   68.564400
H   43.005157   37.066681   52.016228
H    4.090393   85.641182   36.923622
H   56.075943    4.156815    9.247120
H   98.760818   76.669594   58.582836
H   92.543526   46.814278    7.704271
H   30.968559    5.663859   68.032288
H   83.011055   91.537987   12.357191
H   98.144730   46.388298   80.053787
H   88.809265   64.977966   48.895313
H   44.219395   10.101896   43.800713
H   17.386208   38.735641    7.106223
H   45.927242   56.318359   34.450729
H   62.695320   19.674875   68.669785
H   62.759571   47.078339   22.613554
H   99.968246   55.286438    4.600029
H    4.151657   54.415817   23.615015
H   67.373955   59.380573   82.826584
H   54.921661   86.611435   71.406151
H   11.564092   85.239799   21.526505
H   54.375114   62.743454   16.034191
H   78.764076   48.471920   80.238510
H   47.661121   97.885406   46.092781
H   19.519272   94.196411   28.047018
H   67.500015   29.131195   83.496437
H   51.595009   61.889473   85.761658
H   73.768692    7.268868   90.453133
H   63.732353   67.025154   34.649982
H   83.077263   90.295570   72.787910
H   56.063374   80.616783   51.213364
H   95.149460   49.412697   63.131523
H    5.403595   72.404053   59.469448
H   23.539734   77.743713   50.453190
H   90.600067   18.772655   67.152946
H   90.874428   67.339638   81.825386
H   57.235336   68.287407   44.750805
H   59.164383   38.691906   20.602346
H   13.743985   26.036226   13.934258
H   56.750118   90.291809   38.811008
H   34.422668   69.180275   76.845093
H   19.227613   71.010368   39.150112
H   42.868778   79.897972   50.580078
H   53.026867    8.562263   69.062996
H    0.030805   75.446228   67.623062
H   63.265930   56.840324   38.492134
H    7.002912   66.251984   78.726532
H    5.074276    2.839386   78.892395
H   80.505936   23.622932   32.505836
H   39.813171    6.549379   76.171776
H   17.125092   28.178003    3.972662
H   50.856998   36.160809    1.485623
H   41.054417   49.983624   95.845970
H   71.824059   42.160843   78.361137
H   99.734375   78.399559    1.501678
H   75.886841   91.966461   76.926437
H   98.121078   24.776676   53.814762
H   35.195320   84.119011   91.106209
H   48.151810   66.980774   12.010334
H   43.753677   44.610725    6.780701
H   16.225321   87.583359   82.221558
H   17.197159   11.541176   82.296631
H   29.376053   68.343086   51.603279
H   14.352302   45.593163   31.575222
H    6.091428   62.447620   25.450863
H   27.329662   66.137978   55.569984
H    6.415455   41.885303    0.065079
H   43.530739   98.231560   75.808731
H    3.791941   28.132092   54.191910
H   64.956474   48.115715   23.414810
H    3.455372   26.448421   20.507502
H   47.563744    6.979739   26.954491
H   91.234016   24.626108   30.811180
H   32.857529    4.241863   15.993708
H    0.805589   61.242344    7.627663
H   84.194878    0.791989   21.678455
H    3.588760   72.403183   54.365784
H   39.185787   47.573761   81.770142
H   82.670647   33.273888   62.997627
H    4.247331   67.602211    0.022455
H   46.943607   81.040367   52.815804
H   51.521183   30.105057   53.664925
H    1.179387   71.066299   28.087181
H   60.189571   88.610992    9.130342
H   76.216919    4.039419   31.692011
H   37.955879   72.296982   48.218273
H   97.250229   24.216320   27.858912
H   55.125412   31.801474   91.430359
H   31.079231   96.566277    7.167278
H   20.488298   42.467800   93.866661
H   69.684074   76.599113   73.101524
H   11.653454   42.136433    9.932924
