200
TIME:    0.317, STEP:   317
H   11.837236   62.219448   16.656229
H   28.650589   34.002277   93.023071
H   16.523783   72.508430   49.140862
H   20.438066   77.873756   42.486164
H   14.392614   85.680801   52.551426
H   87.113647   50.725094   63.270168
H    4.474814   55.249496   51.141758
H    4.614154   92.211426   22.339157
H   90.555542   86.351860   45.841003
H    8.150646   73.820305   93.035271
H   14.877576   96.239082   95.394943
H   31.096207   44.078083   16.411198
H   13.064044   89.563347   58.135826
H    0.764056   53.531803   45.976223
H   15.904257   72.537338   42.789135
H   27.055984   22.793770   52.661953
H   87.829712   11.324789   11.693579
H   34.733700   86.868645   42.149521
H   67.587349   26.914255   43.617344
H   90.301224   78.647240   34.485821
H   59.009155   80.602028   22.312756
H   88.314812   51.757561   67.607414
H   92.699417   61.981606   47.288635
H   10.239177   88.761200   91.344635
H    6.593277   15.800855   42.662785
H   18.597353   65.753410    4.413420
H    0.386789   60.341785   52.177795
H   96.277374   73.305847    0.933878
H   14.311685   54.189278   37.887486
H   89.569878   22.827076   95.962341
H   13.260962   54.666203   16.288954
H   30.525833   65.311020   95.498871
H   25.262802   10.642406   74.119682
H   93.878136   63.661926   39.636177
H   44.293293   86.619308   33.633389
H   30.546032   48.166317   80.359436
H   88.474503   72.767067   86.532997
H   29.106199   46.747108   11.705374
H   50.220467   43.643356   46.143208
H   89.344307   39.371845   60.688568
H   80.527222    1.626887    4.080077
H   17.171923   41.492245   37.547962
H   75.315445   86.013077   53.187466
H   37.109726   66.973686   21.502216
H   31.407814   78.644417   47.142616
H   39.976215   11.834586   43.525307
H   81.425186   22.439785   97.867378
H   88.241226   65.549431   44.879532
H   90.058220   25.830120   61.221848
H   59.361900   18.148989    2.454759
H   76.376526   69.521515   24.817154
H   18.194632   37.023296   65.197197
H   54.253155   92.218658    8.935580
H   21.260599   83.808624   82.843430
H   73.939651   74.672478   88.283096
H    4.318569   70.453140   81.169617
H    5.210736   17.036842   48.828617
H   68.249924   60.369396    3.913685
H   26.556385   75.964920    8.988817
H   41.322395   95.556801   65.570808
H   50.170139   13.874115   39.986813
H   91.320168   16.607290   49.656288
H   73.568642   26.801579   82.287155
H   25.991674   65.262192    5.386679
H   72.586159   77.226974   21.078259
H   35.719257   19.552635   34.247360
H   83.298927   21.537798   87.425972
H   96.910225   91.624992   88.796021
H   19.261387    6.893792   61.005203
H   44.793724   42.972046   50.978481
H   58.431385   77.923912   75.340988
H   29.976431   21.797874   44.225830
H   79.937637   26.994289   96.917381
H   10.373905    7.272194   62.814095
H   80.082626    2.118031   63.992180
H   55.260025   16.358116   62.374310
H   95.102127   32.816723   71.056419
H   23.703253    7.372066   45.334526
H   12.115967   33.124016   33.233051
H   67.115852   90.237511   90.609955
H   46.636158   28.800671   99.990677
H   30.022158   67.205597   85.476830
H   10.699299   14.510926   88.026794
H   22.163101   64.377464   96.361176
H   36.166233    0.138080   55.600063
H   26.836569   83.080215   26.179928
H   39.306271    2.944560    1.947847
H   74.691154   15.678542   14.346461
H   68.043068   72.242180   77.446548
H   23.058460   89.498505   54.018383
H   38.015003   35.557510   80.411995
H   83.519073   89.211044    0.047988
H   50.917534   15.993681   93.536827
H   56.575050   91.667282   71.218948
H   27.076014   55.884628   71.146744
H   66.083321   29.430859   25.441292
H   80.350105   11.615908    1.645432
H    4.777916   29.635225   49.322613
H   35.273140   69.006691   53.154125
H   68.543259   99.178680   27.269205
H   13.301661   82.555359   72.565620
H   93.435600   77.821510   65.439865
H   24.775534   34.356003   31.578928
H   25.575893   68.081650   93.220116
H   25.236668   26.460827   27.583961
H   90.471451   23.002983   40.285801
H   69.305862   31.052877   55.900879
H   64.297676   37.230785   15.764188
H   74.753403   39.117695    2.855930
H    6.840248   26.986799    5.914122
H   48.207623   95.397659    0.850026
H   89.085777   65.281677   91.388245
H   55.756680   81.168190   92.260513
H   62.963341   17.737322   72.968353
H   61.280693   85.174942   24.072824
H   10.896078    3.544687   82.408058
H   29.409100    9.526947   85.077744
H   40.380451   30.786499   32.439354
H   21.786587   60.604519   79.734070
H   72.814667   48.211666   52.215160
H   41.358223   22.271114   84.996674
H   14.966698   25.655956   50.453129
H   34.092781   18.575069   26.313354
H    2.942829   64.547760   14.493278
H   74.612343    7.045612   90.266479
H   50.543346   64.459305   24.044662
H   93.472679   49.549454   68.081024
H   73.744415   88.173882   35.652897
H   93.415298   49.696449   83.135513
H   71.477348   23.784384   67.813416
H   51.717224   82.436371    6.353947
H   78.744476   86.815079   11.142835
H   92.186317   86.340988   97.947929
H   97.144936   14.977201   50.654964
H    8.229948   99.977859   52.878593
H   60.307243    1.528028   82.547211
H   69.020195   86.760735   59.171860
H   91.875130   61.816757   81.981735
H   48.325882   45.410454   71.531876
H   43.489655    5.396915   93.317947
H   54.429707   60.804287   17.397232
H   53.693542   43.350399   48.041885
H   52.530224   58.178246   96.787071
H   54.184776   23.740328   79.400398
H   43.921299   67.213371   51.586414
H   48.761425   63.302517   26.158367
H   46.552391   96.440590   46.730560
H   40.549911   70.552460   68.383202
H   67.243744   61.577457   97.178993
H   11.916476   89.515457   87.115425
H   73.506142   62.617641   50.762901
H   37.028698    4.979156   45.739323
H   79.752815   28.959431    0.761407
H   11.945378    2.910166   74.049728
H   16.665878   55.912544   62.146381
H   65.787918   43.719830   56.429905
H   60.117260   63.192612   81.667526
H   47.140804   35.424461   11.528086
H    8.857684    1.444198   99.749451
H   62.816399   53.802063   81.196014
H   54.712307   81.281143   81.368576
H   39.988857   22.657267   34.876911
H   68.533821   31.212851   37.200035
H   14.101039   22.441689   67.904297
H   58.216919   24.701105   10.581124
H   13.240335   61.989281   61.880905
H   73.573929   96.321541   53.037979
H   23.699478   34.435902   51.196766
H   95.119232   27.919804   36.675114
H   29.986866    9.878639   89.536255
H   77.893982    6.549528   35.969612
H   43.502907   62.587193   57.694569
H   39.160694   74.145645   88.257462
H   70.277336   72.698471   76.027512
H   67.859039   94.457306   95.610886
H    3.284711   48.076775   23.360619
H   34.626724   55.326519   90.129028
H    2.412432    9.274292   65.864792
H   73.632393   19.589563   68.234261
H   82.637695   55.281075   87.471222
H   80.012016   87.948730   39.929005
H   20.780773   30.200039   72.427177
H   62.090233   90.085861    7.594020
H   53.157551   25.362946   80.023033
H   86.518715   84.994652   78.079605
H    0.872407   36.873505   84.339577
H   34.033173    3.205613    0.971235
H   86.721794   70.486153   28.220800
H    4.388514   61.516777   67.423431
H   51.013790   57.854450   66.675858
H   51.498672   28.476810   78.751595
H   47.021687   87.021744   23.643618
H    5.810834   19.355883   59.570072
H   33.758274   66.604149   34.865067
H   82.252197   50.816032   21.564409
H   75.516129   10.572389   28.511435
H    9.973107   87.659004    6.065717
H   26.671696   95.875839   44.795155
H   10.886497   11.827347   74.573357
H    7.204637   32.384109   96.679024
