100
TIME:    5.561, STEP:  5561
H   41.254311   12.049920   94.054764
H   46.893410    6.205183   28.743954
H   75.348190   73.984726   58.068890
H   82.410004    3.536297   35.345383
H   45.361679   18.496096   14.923958
H   41.786320   95.183449   29.470514
H   61.516590   36.843235   25.330523
H   82.802658   69.698257   97.600716
H   16.927940   51.625946   50.042442
H   22.872622   96.231087   25.452215
H   82.984360   90.001617    4.086193
H   43.594009    2.434983   97.091499
H   89.208023   25.306118   72.452812
H   79.733574   87.935310   80.434853
H   48.141441   73.296616   83.460510
H   77.927811   25.343765   71.429413
H   76.924538   49.786846   79.628113
H   19.986006   24.239216    6.753218
H   31.882908   11.642856   56.335720
H   42.693069   87.719521   94.951393
H   34.279091    2.601508    6.309620
H   95.518829   51.466293   45.707748
H   11.496022   49.394966   73.243378
H    2.360526    3.353976   94.064667
H   30.690113   45.145187   77.609108
H   21.196146   62.263817   67.485489
H   82.547958   11.312098   10.304356
H   63.319714   16.008369   50.591339
H   32.089851   53.629276   94.301392
H   14.227028   53.205040   25.471855
H   34.915314   20.721439   69.410316
H   16.881992   98.869614   84.454445
H   62.067776   61.613029   98.775749
H   13.066714   64.090263   37.474312
H   42.540527   38.551224   63.352760
H   56.045704   20.990116    1.942927
H   13.171609    0.878619   46.650311
H   34.145916   57.187122   14.866512
H   10.339585   60.252007    5.410369
H   39.409412   91.580910   75.563011
H   55.196533   46.993187   73.360451
H   31.829483   61.440102   64.055244
H   59.140987   96.847610    3.151470
H   24.255360    5.984098   24.461367
H   74.279472   12.484433   31.980692
H    6.341449   68.984390    5.753352
H   85.179977   27.264515   78.846107
H   56.536404   52.646469   12.661048
H   27.583916   71.887085   22.642948
H   42.508671   15.373327   94.721237
H   43.120350   32.765228   12.048911
H   75.386864   47.720509    8.991745
H   24.223553   54.253296   79.895439
H   47.910080   16.468582   77.208275
H   98.019402   45.944714   47.647488
H    0.521932    6.684091    3.317245
H   48.794258   29.086647   84.884758
H   11.972251   51.719994   70.316635
H   28.861052   73.734901   84.562416
H   92.050629   55.225994    5.442513
H   10.492476   19.960121   80.816307
H    1.547011   76.181076   43.737350
H   51.597401   27.810724   52.135986
H   24.903080   72.056259   76.159958
H   53.049515   16.695919   13.440681
H   59.724937   65.819298   74.993050
H   41.399414   40.620396   35.548050
H   96.229301   35.577427   32.050556
H   34.061771   50.208336   11.455567
H   43.050331   27.843884   90.023254
H   45.446327   17.030319   95.439186
H   15.437548   66.966171   63.773521
H   44.404099   43.235695   19.163162
H    7.791706   97.463768   72.737907
H   30.289862   36.568562   22.959766
H   57.126434   63.982231   21.745073
H   71.858421   44.555851   89.397301
H   93.246216   87.100410   21.552446
H   28.183315   37.184315   79.727669
H   26.806740    6.084821   41.836060
H   19.691927   86.812759   12.357205
H   58.579163   80.534744   21.763250
H   69.621590    0.118947   59.546062
H   32.738121   88.025681   55.504803
H   81.554329    1.040138    8.675797
H   23.303890   13.318118   27.956070
H   38.561348   99.022774   88.713394
H   45.465172   60.077747   37.918816
H   71.089706   84.544930   82.708992
H   74.672119   80.481491   23.010248
H   51.601707   73.708572   50.899944
H   89.756584   13.719834   39.485687
H   41.924210   94.376686   49.045246
H   84.716896   50.552563    1.768887
H   60.445274   51.609806   43.871281
H   53.237396   76.134003   80.215942
H   21.196314   86.815208   17.371185
H   27.277327   63.586273   67.044060
H   43.799774   60.821583   79.245293
H   84.626083   35.930325   62.032864
