100
TIME:    2.417, STEP:  2417
H   53.870270    0.370196   96.933182
H   34.037041   35.790497   30.463552
H   21.300856   47.792389   94.964470
H   81.882294   33.070702    7.678499
H   73.522202   66.490723    0.170762
H   90.538460   98.589577   18.109205
H   26.295868   24.544746   79.465401
H   29.914864   97.703827   86.273033
H   94.213463   53.908722   47.946026
H    8.790892   51.087898    2.335181
H   75.431580   63.495762    6.932161
H   63.592827   44.842285   20.884195
H   89.517067   15.475729   84.898705
H   35.405525   97.625984   41.175289
H    9.899525   54.130920   34.589035
H    4.341578    0.329321   32.409927
H   29.744247   41.837074   93.415482
H   52.794914   77.161858   15.751919
H   82.910103   79.749939   90.699966
H   27.400703   54.484974   80.893257
H   20.848419   15.596996   91.642105
H   94.100494   47.292587   13.448364
H   53.473595   74.964912   63.197144
H   94.475998   65.669830   27.566338
H   43.137566   94.484161   54.394814
H   35.576397   55.588367   62.625473
H   53.658836   42.005619   47.929104
H   28.602766   69.257103   46.665699
H   63.726105   68.381142   42.918816
H   93.672478   31.019485   75.533287
H   11.180932   38.791454   18.155090
H   18.367867   85.733009   75.510277
H   40.607906   91.643456   15.539403
H   80.224953   52.219101   69.926758
H   20.691769   76.213409   71.905922
H   82.702988   74.353142   12.331204
H   11.621102   16.020163   98.915588
H   64.089882   14.716099   93.002953
H   43.051292   28.753317   10.087160
H   35.539227   85.911858   28.198347
H   70.064796   39.116283   99.288010
H   14.395020   20.333565   16.354177
H   32.059872   77.993973   76.055229
H   25.017073   53.280762   17.055777
H   46.998394   36.528126   62.940285
H   46.904942    9.017353   92.984016
H   60.614178   56.282562   48.658508
H   56.368496   20.268614   18.128151
H   35.680779   32.273396   48.059891
H   76.577446   67.535912   14.617046
H   43.360218   36.298134   78.901306
H   22.594095   39.459576   15.389751
H   59.017845   36.023315   62.495552
H   20.721928   67.774620   38.471283
H   48.343544   70.392990   20.915052
H   96.590439    9.991798   10.346420
H   49.478184   19.805779   85.864189
H   46.081879   48.631958   51.299759
H   80.900291   40.893398   25.928480
H   99.522705   13.566053   94.865364
H   12.166618   66.168404   25.947659
H   13.129135    5.446095   85.992844
H   38.176319   42.332359   67.742599
H    9.009989   54.942375   61.522335
H   28.256283   67.803253   20.651342
H   52.865059   22.116676   89.097252
H   93.647682   31.925310   83.754654
H   13.407192   55.768188   81.749176
H   77.365868   76.116127    8.641597
H   79.351624   69.712471   96.643616
H   45.282341   30.947412   33.156849
H   74.673828   71.309525   33.582832
H   49.399002   98.753136   99.772209
H   77.000145   96.426483   59.559059
H   78.704124   32.083027   84.622665
H   82.797890   62.481133   33.296444
H   86.403015   17.057055   33.795856
H   45.535381   92.678810   47.922733
H   77.415817   46.419239   44.645714
H   80.991066   77.319901   12.694417
H   58.180973   54.286633   24.446957
H   22.673409   60.012405   84.669167
H   70.725876   47.599945   60.107182
H   16.437466   18.987398   42.663574
H   34.642197   97.698654   13.451299
H   95.661621   97.834190    9.627065
H   28.580694   27.617340   38.795273
H   94.864090   11.783533   70.610695
H    5.841576   59.597359    8.425705
H   52.643780    9.832100   10.620526
H   22.936249    3.943351   84.504349
H   57.123898   77.282524   79.576729
H   40.362934    0.055949    5.900644
H   80.840218   59.842960   89.784508
H   14.802254   33.229584   71.626976
H   93.555847    0.287282   42.607864
H   70.752304    6.387233   98.185402
H   15.739533   36.816986   17.362377
H   93.573296   47.269032   42.589279
H   89.345169   16.620667   64.894073
