200
TIME:    0.163, STEP:   163
H    7.105086   62.730541   14.022924
H   27.277981   31.754023   86.771286
H   19.751600   65.767876   41.555534
H   15.246967   76.073769   46.513226
H   16.027674   81.777695   54.765575
H   92.123535   54.904896   67.828789
H    2.243658   55.358765   48.160969
H    1.163096   85.561340   27.805504
H   84.301407   88.660591   49.597832
H   13.571758   75.977470   99.109642
H    9.509776   92.949287   90.528397
H   30.459396   39.967602    9.073347
H    9.284305   84.452415   64.447533
H    8.043312   52.882069   38.555386
H   23.339485   71.351837   43.168049
H   31.544792   29.138962   55.984058
H   80.585114    4.112247   19.170519
H   38.390659   79.465431   44.891212
H   62.463497   32.489552   41.350323
H   89.811279   80.762108   40.455624
H   57.160995   72.914482   29.368191
H   91.743248   45.871178   73.541969
H   97.311005   63.101311   50.983780
H    6.984018   87.367111   91.826920
H   99.899643    9.607081   48.157917
H   18.724833   58.919296    9.499678
H   97.404778   57.251728   45.985931
H   92.743195   66.953018    0.528665
H    7.825503   58.870186   38.789242
H   96.528969   18.701614    1.289409
H   13.462022   48.232304   16.100672
H   33.326271   61.701645   91.707382
H   28.983795    7.328671   72.238625
H   98.974968   63.493912   36.944420
H   51.683582   92.982712   34.804790
H   35.576481   51.677586   78.593521
H   84.054428   76.090935   85.376869
H   36.723724   42.763519   18.629511
H   55.920036   49.157875   42.720058
H   90.821190   40.005131   66.704193
H   80.481400    8.820723   98.968376
H    9.506701   44.721531   42.114315
H   78.088272   89.550781   47.469097
H   37.452805   59.494457   15.994454
H   26.146198   73.945885   41.585213
H   42.143368   15.842408   41.850449
H   78.523117   29.984577   94.490639
H   91.990417   65.551781   50.415787
H   84.102516   31.674206   61.110817
H   64.872803   17.454020    8.970105
H   80.039948   71.470718   30.920311
H   24.081602   34.372662   61.885876
H   50.100376   96.625809    6.920835
H   23.552588   80.558777   80.562897
H   80.458145   78.097389   93.263611
H    6.292740   74.246979   76.126831
H    5.650232   16.454079   50.480564
H   66.567429   56.789394    6.693195
H   29.805939   72.990005    5.264153
H   44.884186   96.421547   68.417656
H   50.668896   16.878696   44.486195
H   88.553215   16.242476   48.476074
H   69.325981   23.611359   87.482681
H   22.260401   65.042480    1.948329
H   70.110588   74.931168   14.780917
H   41.760143   13.569674   31.479233
H   89.051369   24.786177   84.244270
H   97.772621   91.274864   85.747086
H   13.783645    4.812703   62.954407
H   45.680206   40.287926   50.986706
H   58.498943   75.260353   71.221695
H   34.304413   25.845791   45.303825
H   75.049942   24.331905    2.074017
H    5.356821   10.657174   58.331161
H   78.207443   99.625084   71.233253
H   51.367493   21.795090   63.380634
H   95.753036   27.083670   73.234734
H   29.407228    4.567810   50.600548
H   10.945152   26.262787   36.643864
H   69.436333   91.096382   97.913300
H   40.100040   31.403427    2.276569
H   23.250761   69.974899   90.237633
H   11.300127   12.821675   92.532639
H   27.185032   59.341728   91.341888
H   41.650204   98.509628   59.964329
H   22.497858   88.468430   29.385715
H   32.404163    2.623658    1.594800
H   75.971825   21.410137    8.537917
H   63.332706   71.859154   76.886108
H   23.829800   82.595810   55.712627
H   44.470638   34.228081   81.096977
H   84.591782   87.859879   96.687698
H   43.601852   17.730516   97.922829
H   63.480682   97.200012   66.990387
H   23.173788   57.967773   64.732819
H   72.460823   25.987736   32.682045
H   78.261086   16.942438   95.012993
H    9.011471   27.242193   47.864529
H   38.762672   70.549370   52.608372
H   65.865601   96.676086   27.231607
H    6.430819   78.297424   65.313972
H   87.709007   75.491631   66.289337
H   21.583258   39.983902   29.426756
H   18.175911   67.797318   87.104622
H   25.440811   28.484638   22.591110
H   84.374756   30.542782   47.495739
H   62.010746   29.140684   56.617584
H   65.204720   31.317966   21.719017
H   70.839722   41.061611   95.409248
H    1.893234   29.133978    5.160407
H   46.181461   96.735901    0.741676
H   82.902138   61.408726   89.634079
H   58.431400   79.381126   95.610229
H   63.485008   21.057371   76.939606
H   66.419823   78.762192   29.472494
H   17.180882    8.049940   75.460716
H   35.740780    7.358451   83.282455
H   41.161777   23.206459   35.517662
H   15.938096   54.822704   87.345245
H   68.750595   45.138058   46.470356
H   39.750923   21.247753   90.042984
H   21.611496   29.304104   45.923199
H   30.380011   25.070065   21.744946
H    5.211777   70.089890   21.237097
H   79.220406   10.858562   95.359787
H   44.901348   60.245491   27.018108
H   97.300591   48.830399   74.028503
H   77.112930   86.966057   34.352253
H   91.520142   55.270889   86.645020
H   64.013039   24.514307   65.189804
H   45.500687   87.935028    0.468756
H   84.655533   85.287674    7.511146
H   92.689186   78.848480   96.802376
H    4.696283   11.028712   48.759220
H    0.622221    2.762386   59.955177
H   64.408913    1.725673   84.815994
H   68.765236   86.368309   51.505463
H   90.561562   66.624825   84.415009
H   44.300583   43.256813   71.568298
H   43.406235   12.782946   97.597031
H   46.805607   65.333214   12.422697
H   60.783051   38.671253   44.451897
H   57.480778   55.343735    1.981373
H   61.241386   29.315062   76.848457
H   36.682575   72.320778   46.550678
H   43.118839   60.648945   33.533970
H   42.910118   97.114998   47.833229
H   44.754974   76.284927   69.266747
H   63.126804   68.006882   98.709923
H    7.000737   87.824593   92.879082
H   78.934303   60.002254   51.925491
H   30.546104    9.240269   50.565334
H   72.598686   34.717747    6.167777
H    7.874404   99.375221   77.855316
H   10.559196   51.845535   59.360043
H   61.216278   43.337978   51.692013
H   58.505260   58.574562   79.844040
H   44.951328   37.895332    7.920178
H   15.905923    2.024465    5.460392
H   64.542770   60.085571   75.286133
H   53.199589   87.537628   85.463196
H   47.219357   23.455336   36.211040
H   61.904888   37.927006   37.264069
H    8.448319   17.917633   74.493286
H   59.691452   19.475618    9.067966
H   10.587056   66.888969   62.722740
H   76.225739   98.812386   51.405418
H   23.564949   27.429226   44.828663
H   93.026688   28.420616   37.038754
H   22.959042   11.040789   91.270447
H   80.835999    4.718111   35.982536
H   48.822975   68.306885   57.221661
H   36.185192   80.762833   92.590591
H   72.171318   76.390091   72.460434
H   75.016693   95.615784    2.851749
H   98.529961   47.244926   23.212872
H   36.208763   50.515781   83.686905
H    1.047571    9.127426   63.895611
H   77.570747   23.169565   70.035423
H   89.963364   53.629128   85.298782
H   82.823616   82.430099   43.509594
H   17.674561   30.012051   66.805153
H   69.179901   90.245651    4.546040
H   49.804298   25.077732   74.357536
H   84.527214   91.674110   78.714066
H   97.648430   35.574036   83.568825
H   28.670990    5.843533   97.559158
H   94.120308   63.962959   22.832293
H    8.848242   60.830032   65.663391
H   48.213352   58.692173   64.730179
H   44.141869   33.571880   79.851326
H   48.284145   82.836655   25.605158
H    2.390126   15.692166   56.042355
H   36.448856   60.457767   31.761475
H   87.537018   57.694641   22.068159
H   75.140152   10.194503   30.621309
H    8.949452   83.459816    0.867819
H   31.147285   98.936523   49.138271
H   12.940123   11.396442   81.460777
H    8.810872   37.601372   98.818565
