100
TIME:    0.944, STEP:   944
H   53.483315   35.451637   98.281754
H   75.011147   55.928516   37.547421
H   95.983673   41.818798   12.255760
H   81.635056   93.756432   88.419426
H   86.715729   48.423286   40.108910
H   13.377968    0.186238   72.233696
H    3.496204   25.080755   64.274803
H   45.689758   70.269150   21.518753
H   30.422676   95.531540   40.665756
H   49.042519   29.938347   44.657082
H   12.446442    4.226501   48.818245
H   19.809795   71.008583   25.733759
H   83.214203    4.593985   31.303255
H    8.340464    2.166698   29.078892
H   91.983376   85.702728    5.394341
H   63.568054   29.167744   54.680161
H   48.170341   44.425217   59.304085
H   21.317001   48.794006   66.819626
H   59.963882   17.954500   13.097033
H   67.096169   85.739990   80.589622
H    8.258240   62.240128   31.622795
H   52.864735   45.345909   38.875805
H   73.140266   86.944725    5.340372
H   31.333725   48.003544   36.965195
H   95.821770   11.308201   43.527573
H   42.330494   99.482224    0.692421
H   80.677002    3.235221   18.698812
H   52.888390    0.501934   97.976212
H   31.697525   34.738712   12.549210
H   37.189800   67.475876   58.433773
H   53.236027    6.696447   34.711418
H   25.361761   26.430931   11.873238
H   36.851749   99.415245   82.839928
H   17.988365   87.210823   31.981226
H   57.307228   87.560890   82.211426
H   54.632233   58.640942   17.396162
H   70.340172   69.964699   82.848885
H   24.974014   41.676296   89.057137
H    8.280819   60.356377   51.649574
H   74.278572   23.808863   12.305647
H   70.728531   88.572670   64.584763
H   46.779839   54.226463   47.150776
H   19.372061   69.160828   69.658302
H   19.078516   28.591436   73.032722
H   74.769829   94.646255   36.888893
H   65.895042   80.950249   87.020195
H   46.047840   76.664963   35.689644
H   56.289829    5.102800   26.987272
H   92.625481   54.266327    6.816651
H   45.688488   45.117680   17.640694
H   43.472599   78.506279   63.370258
H   51.009178   76.143372   12.089317
H   28.461458   27.482361   48.044388
H   54.829556   91.801674   73.472855
H   65.609146   41.261005    8.416582
H   94.747391   11.539846   60.490814
H   56.096016   62.308266   45.769753
H   55.766296   87.738304   89.239578
H   64.726997   78.654602   39.011997
H   96.725220    0.345794   36.759972
H   19.248873   34.670815   40.793686
H   65.406738   19.158737   52.643135
H   38.263817   42.780159   68.795998
H    7.861614   46.929611    1.508612
H   69.792839   85.448540   83.474342
H   43.353828   95.344124    2.002449
H   11.829569   80.998444   12.638435
H   15.157424   71.525375   11.331260
H    3.949802   81.956512    1.025381
H   49.508690   95.623192   99.745331
H   92.055305   31.171774   50.825626
H   96.130386   20.196175   25.736471
H   45.441574   71.611092   37.543324
H    9.413337   89.641418   47.103874
H    7.686656   29.986898   72.959404
H   47.977093   68.075462   32.410763
H   52.664600   44.726677    7.737835
H   76.331161   88.995003   66.575211
H    6.799739   50.737156   28.214394
H   53.230026   57.543289   39.594666
H   29.355251   39.047771   36.408779
H   12.151794   50.392593    7.840698
H   77.525780   23.013041   19.811069
H   15.107895   92.940895   77.206093
H    6.364075   89.835938   56.242226
H   29.565197   43.729778    7.337477
H   30.202353   34.716438   68.556641
H   71.151703   29.714993   85.928474
H   75.273140   41.611320   20.476799
H   82.874710   70.440353   57.960339
H   62.654911   24.405466   53.397289
H   48.133396   66.503899   51.508965
H   45.852409   55.914764   91.945000
H   38.469185   70.494469   90.467735
H   40.271580   65.172852   37.777824
H   71.892105   58.453362   18.690346
H   87.672318   21.854445   82.898621
H   10.331199   24.275269   40.932159
H   63.742058   40.919506   65.975899
H   97.867020   54.457058    6.765023
