100
TIME:    1.615, STEP:  1615
H    8.106754   73.917618   97.667435
H   56.346092   92.307564   79.873985
H    7.515230   90.094017    4.377244
H   81.747681   66.112083   51.640484
H   80.705643    2.206894   21.914940
H    2.972665   99.458443   38.684566
H   68.326775   70.391167   16.747963
H   92.950478   28.320072   59.911011
H   13.928215   31.017822   98.427864
H   30.705282   39.572365   70.933220
H   50.031662   31.225346   84.184280
H   94.199020    4.642372   77.971764
H   40.532097   63.997627   64.610161
H   75.116371    0.097993   80.142525
H    0.143612   25.768688   73.141983
H   36.589218   70.477287   98.982193
H   94.223892   88.799515   20.397196
H   35.656227   16.163437   43.557419
H   70.415565   46.105659   48.445965
H   49.006096   71.516220   26.289316
H   68.440247   95.438477   13.410801
H   17.204716   46.231552   81.740944
H   64.181450   81.487526   86.142548
H   68.990517   56.051121   87.130234
H   71.822380   58.089355   48.477959
H   39.253780   79.486145   37.798584
H   22.815166   75.344742   32.014172
H   96.273361   31.822445   20.155268
H   46.287598   95.617706   80.830742
H   62.919521   50.868790   11.776629
H   79.631264   66.870041   81.615265
H   67.729279    7.893304   49.755424
H   84.116287   50.320930   43.288910
H   46.339180   25.717506    3.714417
H   40.628471   36.838631   23.070992
H   12.972596   11.350126   15.087712
H   34.698746   45.391945   35.720890
H   97.241402   29.395039   36.407276
H   78.116837   46.032509   87.336777
H   11.078840   60.993214   65.100174
H   24.874001   11.597888   80.393234
H   86.474182   84.339989   78.675568
H   25.151777   73.184616   18.126785
H   76.230797   39.837814   38.640209
H   16.566612   68.169113   94.309647
H   57.251789   93.720436   89.728828
H   53.132984   12.860084   41.423286
H   56.325665   12.011328   68.504982
H   12.239751   98.695885   80.051895
H   59.761509   55.330730   70.708580
H   43.421406   13.725634   70.445160
H   83.619270   13.878778   68.041336
H   42.380898   31.373047    9.072483
H   39.292408   80.856560    3.082783
H   12.189247    0.084015   14.110550
H   95.586960   10.834660   37.648392
H   98.636642   42.946983    9.587418
H    5.800980   24.370892   71.956741
H   17.648888    7.005774   87.499069
H   52.444408   51.922977   17.675133
H   61.576214    3.468022   88.477806
H   41.591644   12.912529   22.280426
H   83.777496   97.021965   22.763039
H   53.939308   50.579689   83.293633
H   96.423561   31.856396   45.963261
H    2.133388   61.986610   41.676754
H   57.994217    4.198630   45.035046
H   68.806648    9.900384   43.408939
H   37.393959   33.742722   58.943817
H   63.100494   29.372461   98.332397
H   70.748680   85.515892   42.778049
H   40.802883   97.926193   74.865166
H    1.690135   38.421345   20.337276
H   94.646690   47.179718    7.224342
H   40.037262   30.941652   23.826107
H   63.841877   11.078554   87.260551
H   13.586138   86.569809   19.609865
H    7.855967   45.120193    3.629279
H   38.964424   48.771336   35.697548
H   20.323013   20.997210   81.787544
H   42.486317   45.989574   76.513557
H   62.499332   54.774734   51.732376
H   19.983692   34.212067   83.720703
H   61.268810   50.359234   15.917549
H   73.692215   47.865753   91.196396
H   14.120197   68.378410   53.933800
H   75.016914   85.929260    0.552428
H   81.953476   75.993851   78.955956
H   89.197701    4.251994   14.986561
H   23.550461   42.830650   81.949486
H   90.114967   60.635456   67.567581
H   97.780602   16.969339   64.292030
H   88.905922   76.021408   43.856125
H    3.323003   11.193894   35.709984
H   28.670456    5.067002   53.197227
H   27.313995   31.955748   84.031967
H   34.410873   60.361996   44.309158
H   12.794873   29.988434   30.196507
H   31.777020   43.811924    9.770664
H   39.538345   37.220295   42.138496
