100
TIME:    5.291, STEP:  5291
H   59.513588   36.809608   94.301956
H   54.350380   91.574753   11.719607
H   70.705093   54.559525   61.239132
H   82.364685   14.660984   50.146027
H   47.780045   96.854492   22.244019
H   45.974171   95.475960    2.731253
H   75.667992   18.610737    4.216126
H    4.024132   46.340137   22.391521
H   23.565056   77.585266   67.038612
H   30.250284   92.354286   14.878561
H    8.099091   79.137512   30.093922
H   53.899872   88.901283   16.309916
H    6.437302   41.633598   99.281425
H   93.102562   88.767525   59.888634
H   44.857903   97.414352   96.438110
H   88.783676   48.958878   93.841522
H   98.636269   31.929256   55.048950
H   14.212163   37.376041   16.112539
H   27.677547    0.315432   42.111858
H   49.966705   93.454384   76.568520
H   50.301277   29.481575   13.637844
H   69.633667   51.107864   68.700760
H   15.101426   51.590858   80.968140
H   27.447472    0.123993   14.117082
H   40.346954   66.557983   75.615089
H   22.426958   70.244461   92.876266
H    5.829634   22.535877    4.946829
H   86.102547    3.405684   41.665634
H   26.219032   29.132631    7.064320
H    3.874304   59.887474    4.008299
H   24.288849   96.510162   90.771858
H   99.834328    6.329170    9.449638
H   43.048382   81.367821   74.452019
H    1.658269   88.834221   48.849281
H   49.251801   58.961075   46.912407
H   32.574787   99.842079    2.792036
H   87.274689   10.767303   25.375286
H   45.304592   62.128910   95.813408
H   21.736958   66.135185   31.574678
H   64.839394   16.857346   54.320004
H   73.649445   37.729652   66.999367
H   56.095543   49.321495   51.372204
H   56.815319   95.228500   83.648201
H   41.494968    1.452006   98.062424
H   97.700951   23.136536    8.875415
H    9.825674   63.834553    4.656379
H   83.070602   12.580258   76.254707
H   56.521984   49.865555   95.955055
H   19.692299   94.249756   33.413460
H   36.845905   11.263754   13.605331
H   43.140949   58.831665    9.202594
H   62.265068   72.774796   26.717499
H   18.622585   52.687744   95.575676
H   54.161987   20.874786   65.293602
H   19.517742   22.282644   45.350658
H    0.185631    6.968104   12.508682
H   31.678246   36.877327   59.205589
H   32.076309   77.217888   77.270981
H    7.567312   62.326797    5.289642
H    9.868219   34.472134   13.121956
H   93.460602   32.516422    1.868719
H   11.128946   78.694199   55.954834
H   33.266026   46.235031   70.650696
H    6.362598   70.585464   83.489212
H   42.331665   38.260662   88.296547
H   76.311546   79.241844   59.028542
H   63.061707   31.286743   22.512020
H   14.880378   20.135351   19.142996
H   20.604208   69.608818   28.390167
H   37.581200   14.263685   90.591797
H   54.019783   35.400833   98.677406
H   37.700035   75.926895   44.004311
H   62.008316   56.590263   26.086609
H   13.734623   14.552013   88.780693
H   17.272093   36.183353    2.491277
H   50.742691   46.676704   39.912235
H   47.343777   67.958443   84.622368
H   80.561127    4.754385    6.640865
H   15.236585   37.977390   76.716042
H   40.045547   20.792419   65.096863
H   14.408344   84.019485   96.220085
H   38.316185   78.781815   44.347679
H   52.543335   95.603577   33.831875
H   14.162683   64.921432   80.165649
H   94.700844   17.929123   34.849205
H   29.518719    3.400553    9.206342
H   20.528662   18.654129   75.838791
H   41.122223   81.684708   40.719513
H   65.486679   99.578346   84.917244
H   98.542664   91.588669   13.358557
H   40.552208   59.129032   45.198040
H   69.779320   93.413422   34.342026
H   24.616625   86.277016   28.165730
H   58.622047   34.171947   83.563194
H   65.113091   75.794518   37.666752
H   30.936523   86.796234   94.161713
H   42.627373   71.320366   32.898987
H   26.286497   61.287384   71.365807
H   56.662018   59.657719    1.859441
H   67.854080   42.857891   88.041779
