100
TIME:    8.079, STEP:  8079
H   70.972404   81.138420   91.749466
H   77.354477   42.653797   87.512100
H   18.641535   55.139374   28.504581
H   82.832642   99.794609   97.324532
H   22.804266   20.324726   46.649826
H    2.732364   92.455513   78.836891
H   29.550186    6.869655   22.241489
H   84.892822   87.538200   66.407784
H   55.030632    9.529876   91.542694
H   54.093697   32.387470   24.045467
H   48.766129   91.318848   61.538452
H   47.489525   28.648922   17.856983
H   28.578819   72.974091   22.238497
H   55.057259   80.174141   72.056313
H   78.733528   48.376724   62.380417
H   76.683914    5.110052   62.413361
H   74.441872   16.334515    8.851598
H   73.830414    1.714993   19.468422
H   71.095688   17.276402   88.995346
H   74.852554   34.247303   66.388496
H   84.857414   51.927967   37.965763
H   36.921940   54.808975   31.276779
H   77.875908   28.917685    1.199700
H   68.403183   33.476532    7.056553
H   40.632271   45.455673   96.205177
H    9.514233   87.934555   30.612240
H   65.418793    6.641563   60.271137
H   50.858635   33.540104   33.820724
H   86.840675   82.082230   75.273613
H   10.778316   90.883926   25.645630
H   34.014568   46.514938   70.194313
H   75.870323   29.297626   51.350563
H   39.430828   77.384453   25.617079
H   19.458828   33.330482   31.394999
H   79.891624   47.976341   16.584280
H   74.931458   18.211039   94.027077
H   54.679630    8.664194   45.058865
H   30.072880   11.100887   92.554466
H    4.053426    5.390577   61.397163
H    2.242326   55.855064   73.674255
H   83.109406   33.392410   32.682217
H   19.359962   73.284958   92.407890
H   80.815094   11.951353   85.027962
H   63.471157   48.248314   70.656403
H   55.861671   13.137644   47.452057
H   73.838982   17.008350   15.983110
H    4.854809   64.201668    3.015253
H   56.680721   78.581070   68.460289
H    1.189978   63.346199   22.198860
H   95.360596   53.700985   18.648403
H   42.946850   89.667900   38.591751
H   97.767487   14.067247   43.700928
H   76.453178   68.853516   33.656380
H   89.601837   75.390015   88.320877
H   97.532448   66.610764   69.063004
H    3.658144    4.035399   17.598572
H    8.426293   56.430351   24.367699
H   24.476629   13.925348    5.457772
H   27.447834   80.135231   91.261276
H   25.888420   48.767651   33.824608
H   69.330093    2.861467   84.493538
H   12.178444   52.743881   29.804798
H   22.543465   55.986725   79.469177
H   97.809807   85.772781    7.792649
H   52.993584   15.587679   47.931274
H    5.043087   40.642235   23.877888
H   39.375580   27.674927   57.116497
H   22.294136   79.583733   52.425522
H   59.560020   69.280922   53.532997
H   94.105034   54.430241   84.708176
H   65.487831   45.707054   65.239784
H    7.981811   83.345116   48.233074
H   80.225006   18.692038   54.606266
H   52.355946   38.099865   23.126577
H   51.644394   40.211102   13.856749
H   16.648088   25.360535   52.314415
H    0.528052   26.542419   34.023415
H   11.545192   22.457226   60.614117
H   48.929543   29.788151    7.817928
H    3.324043   68.917992   24.908028
H   68.974937   12.863320   62.853714
H   47.537636   96.864075   11.115376
H   28.888876   42.227573   99.345459
H    5.972131    3.496420   25.525608
H   58.950195   43.530231   64.584572
H   65.356674    5.808177    2.813383
H    6.732985   15.943365    8.781242
H   85.961571   58.585419   11.811317
H   23.347046   44.346077   62.114998
H   52.047215   76.884903   13.022457
H   54.648670    9.674783    4.075650
H   76.063087    3.097766   87.464485
H    3.333061   69.929832   43.766052
H   28.070265    3.316464   71.553352
H   16.910236   26.061905    1.734105
H   61.213867   76.701294   50.158134
H   21.329302   31.315819   72.557930
H   22.682978   86.208412   16.695089
H   23.847923   71.689278   68.337334
H   41.028576   71.311356   19.464108
