100
TIME:    4.077, STEP:  4077
H   41.610992   48.139618   95.413406
H   87.879128   25.790049   35.173454
H   49.834641   67.219734   75.486015
H   82.160919   64.677849   16.688387
H   58.653732   99.547035   55.160095
H   64.803596   96.791176   82.505241
H   39.294682   36.636433    9.279717
H   99.442131   41.313892   33.857395
H   53.407494   94.306366   43.454624
H   63.426826   74.923042   67.342804
H   21.022415   30.289280   47.031918
H    0.230896   28.049387    2.724202
H   83.905380   15.045826   19.910965
H   53.211617   92.509407   67.502625
H   30.093540    5.853539   54.795910
H   37.597763   55.139763   94.614197
H   96.258949   51.631649   44.533745
H   88.260338   96.435982   58.200077
H    8.769001   49.389786   78.153885
H   82.676414   19.236555   93.913780
H   22.341751   50.339710   46.585663
H   53.246307   49.496262   72.084076
H   31.310204   61.464241   15.702008
H   40.244041   85.578888    4.278837
H   83.767609   62.834145   66.649391
H   27.961496    6.129602    7.033664
H   10.514193   73.002457   80.863747
H   88.536499   46.740280    1.533856
H   99.820770   18.989372   64.450203
H   57.323303   89.933678    7.498705
H   76.511925   87.648033   86.819679
H   23.181318   39.867790   21.835716
H   57.536755   70.189644   65.085312
H   50.364761    0.090117   99.994514
H   79.427673   50.730217   72.988312
H   27.043425    4.754860    6.613917
H   70.835648   55.227524   29.716848
H   95.483116   84.340172   10.144789
H   72.982452   92.587700   49.220467
H   79.185188   30.507919   58.805157
H   56.617523   96.076996   38.398052
H   65.203598   94.835312   94.342712
H   46.358425   87.948502   95.960167
H   19.014891   81.097534   79.361816
H    3.006495   71.032135    4.990272
H   25.488773   40.679340   99.721687
H   73.586227   46.559349   64.603004
H   56.457150   37.361740   20.839546
H   84.204880   94.793121   81.841492
H   11.384433   92.789513   98.514626
H   43.233570   76.035332   96.404053
H    3.267843   85.424301    6.413487
H   93.442589   45.648560   66.084999
H   82.278435   40.686386   11.723456
H   16.177170   15.886515   35.023434
H   98.667465    8.245337   53.836105
H   54.714771   71.906532   43.744133
H   22.473869   91.865028    8.540489
H   11.821646   11.031704   98.489250
H   89.979172   41.160282   47.651009
H   16.880770   88.972923   96.521492
H   54.213921   89.993942   10.881869
H   50.848553   29.076305   53.898338
H   22.999342   63.972374   16.448330
H   94.145058   35.220554   75.242226
H   50.888527   39.592995   87.247864
H   60.463242   89.315094   63.899883
H   98.739326   50.705521   61.106777
H   60.101013   56.839111    4.529284
H   12.986784   53.204903   93.148132
H   92.568581   18.000671   13.241093
H   37.799896   16.217667   55.121471
H   41.163879   16.641911   57.216476
H   40.460613   91.378761   60.912468
H   58.738392   34.451344   10.462016
H   22.039492   68.871422   21.599495
H   37.120010   73.179977   63.152851
H   23.525204   84.135826   39.597755
H   57.018166   41.543293   63.174309
H   99.581299   86.911842   69.684044
H   90.655777   71.460098   23.661448
H   47.227623   70.853470   45.861572
H   75.749611   75.310516   18.214092
H   30.641611   61.036812   91.046249
H   53.813477   93.865318   52.532959
H   57.462429   58.811447   24.902618
H   39.448341    6.921822   17.950758
H   21.581694   78.879845   53.343735
H   40.293808   67.171364   94.846199
H    5.876538   41.537537   69.958359
H   90.870209   93.578194   19.560587
H   79.953140    2.113019   11.211946
H   46.797050   49.848198   34.285198
H   41.285633   60.534294    1.710307
H   86.100975   84.536766    9.772523
H   30.665100   34.734322   56.866615
H   38.988953    1.651444    2.716675
H   21.831434   50.950897   90.797661
H   14.494316   54.424641    3.544579
H   92.449669   74.009254    4.989278
