100
TIME:    9.818, STEP:  9818
H   53.370514   21.664379   90.157364
H   29.326435   36.887470   97.160759
H   48.533253   80.250389    8.091221
H   83.124527   28.149660    2.003748
H    7.221567   59.712982   99.500465
H   75.771729   90.571526   51.055695
H   38.408657   24.296343   58.233562
H   48.210861   37.983433    6.736925
H   12.282692   42.331345   82.079765
H    6.592436   57.356937   92.135139
H   87.008514   61.289612   94.027519
H   81.115913   15.815876   94.073524
H   17.688522   67.717186   49.421608
H   68.952927   74.814064    4.393338
H   99.855415   93.040680   78.751732
H    6.761733   53.010788   18.060944
H   34.601936   31.355148   67.159622
H   11.019347   17.094810   59.184731
H   98.187958   90.229706   80.619339
H   28.001881   97.317108   84.787712
H   81.662186   78.805489   90.765015
H    3.641571   57.117523   83.184906
H   54.657753   14.780859   51.446426
H    6.823730   54.279999   77.904831
H   78.436752    7.543289    9.043655
H    1.311828   36.668869   66.965218
H   15.461487   34.353886   94.768112
H    4.127838   14.710759   91.302574
H   24.654232   39.857487   93.070511
H   77.459007   47.844101   63.891396
H    2.454584    2.455353   32.610184
H   85.671921   81.249939   90.362663
H   61.925476   50.150543   82.279930
H   92.935471   73.961601   58.134468
H   36.612984   16.309578   22.387800
H   26.099001   54.422924   88.560860
H   21.473282   44.979256   82.085403
H   58.194027   79.281807   15.270652
H   30.650883   67.499474   92.875648
H   38.447643   93.054169   10.494054
H   64.260666   93.062897   73.652306
H   72.806114   80.108170   81.178947
H   95.780853   22.384968   10.637640
H   52.439693   77.444008   40.684780
H    4.998782   44.508274   96.255890
H   51.397797   50.174145   23.048063
H   18.451153   58.778561   19.714827
H   56.786861   96.492218   76.059387
H   52.018051   19.323917   52.831299
H   31.862669   80.177788   97.057961
H   45.950214   22.013626   52.128403
H   82.283615   52.702118   29.545580
H   12.517672   78.936829   32.657928
H   49.326492   47.016121   65.057442
H   59.071205   19.007151   83.843018
H    5.824066    2.206141   58.398895
H   18.671104    6.252015   89.760872
H   94.987747   49.698311   60.666161
H   64.605721   53.617706   57.758129
H   11.132904   82.432404   84.363319
H   79.031250   21.989103   48.914288
H   50.457909   36.557510   51.123093
H   40.623440   37.350792   60.234818
H   17.224186   95.245789   60.583954
H   22.015472   76.695961    9.875928
H   98.214935   54.191704   26.701639
H   99.851418   87.795776   41.075756
H    2.169219   79.039070   35.559784
H   46.230705   44.327469   44.465580
H   29.423447   41.776379   81.019806
H   10.257780   27.379536   44.383247
H   64.777565   25.604881   75.700409
H   66.840454   32.671879   10.014141
H   14.079159   28.039413   19.801298
H   35.412971   42.771732   45.708897
H   57.764122   36.814388   35.302650
H   58.466743   76.027878   64.870018
H   93.239525    8.754601   56.662781
H   32.322136   24.680157   27.226908
H   18.041698   74.186104   75.091805
H    3.019111   30.854074   66.791924
H   78.030083    8.149865   65.628822
H   38.883507   71.309975   64.960693
H   25.612183   52.306961   66.693871
H   74.276901   34.745010   96.009399
H   25.329021   69.687370   23.575092
H   22.876940   89.503258   91.703224
H   13.928228   19.431322   93.785278
H   59.436283   47.521416   47.892220
H   98.295319    5.335571   75.185028
H   25.816336    3.574413   40.800316
H    4.731477   33.886459   20.598803
H   14.806100   22.103277   78.245598
H   93.011330    8.582578   93.609322
H   86.842728   70.293739   41.692024
H    4.848153    8.030558   60.336456
H   83.295860   31.112499   72.545792
H   19.326296   72.253998   81.778160
H   41.006035   79.198692   22.676952
H   49.044350   26.689735   51.941456
