100
TIME:    7.731, STEP:  7731
H   94.506584   13.051517   92.068069
H   86.965683   23.795124   65.570938
H   12.659754   30.102547   32.589535
H   82.774231   14.133080   16.399857
H   25.922598   92.431084   56.085800
H    8.129375   92.832527   44.373100
H   47.787762   83.371902   95.027420
H   12.244942   57.430744   98.358406
H   63.585136   42.989319   13.447594
H   63.598701   27.390703   10.418530
H   81.136246   77.316223   95.060654
H   60.772636   11.205563   42.627647
H   50.769554   94.039093   56.820629
H   72.288399   81.246773   45.573200
H   74.506721   79.461807   79.117462
H   90.675919   35.547546   91.300079
H    2.425934   93.316940   77.171783
H   66.391022   18.648331   31.531548
H   65.674118    2.676517   70.659714
H   84.230118   41.636250   42.695015
H    5.508209   86.571716   47.409702
H    3.558838   54.347000   60.912216
H   82.522209   31.746618   11.156724
H    0.736161   29.313448   32.902199
H   53.079048   73.053833   93.635109
H   11.155041   98.193588   63.361969
H   95.425934   21.107889   53.365406
H   80.222069   17.296637   22.317598
H   79.273842   50.508625   91.724174
H   97.434723   99.496841   97.981377
H   20.318403   15.309685   97.726967
H   53.897305   38.911488   83.566689
H   14.917839    2.846065   94.266487
H    4.754457   65.222694   46.056015
H   88.552330   74.324852   95.411407
H   44.680058   90.953598   95.120949
H   21.302830   21.409662   17.637724
H   44.455353   17.469791   67.995445
H   18.743252   12.972013   95.121346
H   35.019859   88.432938   46.293877
H    6.892866   21.452742   24.483488
H   48.687416   71.920273   74.640434
H   77.820221    9.863836   59.890575
H   85.693207   42.406944   36.631680
H   86.048637   26.866940   17.672607
H   78.331291   10.372104   14.569307
H    2.134400   45.276619   99.673286
H   56.659481   74.996780   46.928005
H   91.016182   92.169136   36.081070
H   88.053955   48.404202   42.981018
H   42.970745   23.265554   34.922501
H   80.854950   46.359631   66.544800
H   69.236809   66.835693   53.866463
H   97.662506   81.066467   72.964188
H   25.241451   36.112671   66.105301
H    3.224710    4.401462   29.445312
H   86.363785   66.471672   91.269798
H   50.389328   46.790031   14.421815
H    0.001396   65.431679   17.977077
H   48.851768   22.018230   43.722557
H   47.378307   19.044659   11.627074
H   24.529640   55.983017   45.551590
H   98.917656   79.733307    3.332581
H   73.914543   83.877090   17.241329
H   39.179466   43.382397   15.523314
H   26.420055   57.942406    3.301002
H   67.295868   15.643681   40.315472
H   46.332771   59.681633   35.789108
H   42.214714   94.285988   75.358612
H   87.037346   36.952183   85.446274
H   76.538063   69.384933   69.413490
H   36.638470   94.899803   22.725725
H    2.914931   35.905621   63.529819
H   60.015705   60.123333   43.803375
H   34.880539   39.698681   87.471390
H    8.420764    3.056888   75.730446
H   68.922569   56.663727   27.851362
H   95.196762   45.210827   41.394360
H   32.242683   30.810337    3.934284
H   20.389652   87.874901   54.888618
H   62.162132    9.263101   42.054214
H   21.424885   94.607300   40.228725
H    6.877338   36.407749   66.205383
H   82.029411   73.717529   57.308964
H   75.894592   65.298973   98.319374
H   73.364243   93.026260   78.647247
H   83.490791   41.245796   92.187187
H   80.364769   86.431885   15.419502
H   16.124039   63.722481   64.961189
H   82.814728   91.200821    0.582792
H   40.407093   90.883537   96.726364
H   50.314610   76.924591   80.832222
H   81.025558   59.489109   16.854677
H   94.437538   82.203697   48.088207
H   22.927860   57.234604   93.737305
H   32.470520   90.443726   68.132683
H   48.951714   11.345860   92.571541
H   23.354700   68.987892   23.681799
H   40.425926   70.186531   97.484245
H   19.413980   80.242874   52.989162
