100
TIME:    8.208, STEP:  8208
H   62.248528   69.308434   91.631363
H   73.791702   49.644512   95.645462
H   20.858919   64.420303   26.990402
H   82.854294   94.479973   90.254097
H   21.648333   30.664646   43.152008
H    0.731730   92.315758   91.611702
H   22.789280   15.580737   32.329456
H   74.753677   98.698936   54.563232
H   51.859566   97.126831   83.423111
H   50.570290   34.239719   29.096832
H   36.766861   96.509476   49.113029
H   42.565613   35.115063    8.674965
H   20.352943   65.165512    9.418905
H   48.669853   79.776527   81.872643
H   80.300362   36.853806   56.177055
H   71.497223   93.827171   51.705353
H   64.068489   24.866474   20.594976
H   76.588120   95.437859   14.996801
H   73.105408   22.688473   95.792175
H   71.376389   31.508207   75.171425
H   77.202370   39.085247   34.464993
H   49.289295   54.980225   20.291229
H   76.153572   27.869028   97.508896
H   56.417068   35.019745   97.475967
H   36.018379   35.224998   97.157875
H    8.906002   84.131638   18.472725
H   54.294594    1.279044   62.831020
H   39.974457   39.561390   38.085228
H   89.645622   93.786240   69.175560
H   15.724619   87.691208   35.900604
H   39.092014   58.082146   59.988243
H   84.015495   25.733868   39.408379
H   48.517872   67.946053   37.238419
H   24.909775   21.508369   25.960783
H   76.681190   38.209221   24.433210
H   86.145340   28.315245   93.621590
H   67.052147    3.939582   55.223598
H   24.741020    8.740057    1.658086
H   98.608269    2.580217   48.895958
H   90.091599   43.778046   83.823242
H   74.293015   37.818321   35.721401
H    8.488408   73.790833   98.994102
H   81.925262   12.725174   94.346291
H   55.234455   50.414520   83.269806
H   44.672318    8.048344   58.491631
H   72.173729   19.468338   16.507193
H    5.863237   71.216988    4.254153
H   56.688595   79.909729   76.442085
H    4.960533   52.662796   17.053013
H   98.069092   55.664448    9.628602
H   42.937992   77.213936   39.951904
H    4.037026    2.096962   35.232941
H   79.128212   69.601501   26.164328
H   86.613831   73.285812   94.013443
H   87.261421   77.915192   70.159393
H    3.818813    3.899704   13.207108
H   16.604172   52.708138   36.636635
H   14.871379    1.742592    2.134860
H   37.622189   85.585686   81.358337
H   17.376144   58.683384   30.155540
H   77.467392   96.862183   74.435097
H    7.599983   51.543167   23.968048
H   31.301296   47.184113   70.623260
H    6.667996   86.475494    4.290033
H   58.114334    5.284297   59.944321
H   97.118660   34.229240   31.505375
H   29.025675   32.134777   63.344463
H   13.383190   86.961235   58.592468
H   65.989441   60.011803   45.441956
H   96.724953   60.909176   84.434570
H   61.390995   36.929047   63.692635
H   97.358978   79.061913   57.688206
H   71.814102   12.311029   51.298397
H   49.516552   29.935867   15.462183
H   57.858582   40.401051   23.637594
H   19.698099   33.628334   43.634827
H   12.244197   15.376762   36.311661
H   17.605173   14.022701   67.739197
H   55.115189   29.409237    9.257555
H   96.997826   61.890862   13.794582
H   71.500374   14.197885   70.563873
H   57.217163   97.700638    0.323291
H   37.048622   44.384922   11.630994
H   14.847081   14.535362   13.743799
H   52.669083   35.460842   52.079430
H   62.387814   10.546569   11.771735
H   15.348619    6.563789   14.932442
H   88.036247   48.262230   10.473801
H   26.024540   37.163445   61.059944
H   40.641415   71.578140   17.633730
H   59.927876   16.640133    6.800016
H   85.607780   12.799627   89.922997
H   11.602064   73.799675   53.741821
H   40.537178   11.142690   80.251640
H   14.679565   14.506508    4.698245
H   71.868729   71.607117   43.495155
H   11.090143   38.718864   65.139091
H   22.433977   92.591881   14.105188
H   17.702629   72.246330   57.532284
H   49.040882   68.000534    7.036895
