100
TIME:    4.205, STEP:  4205
H   32.954742   36.401337   95.296219
H   84.343971   32.726570   43.244743
H   52.034836   76.428719   73.984062
H   82.182404   59.404411    9.672053
H   57.507248    9.806796   51.689392
H   62.818638   96.652504   95.181023
H   32.586674   45.279987   19.289484
H   89.381584   52.387135   22.104465
H   50.261009   81.999725   35.397007
H   59.928780   76.760933   72.354523
H    9.116165   35.439671   34.702816
H   95.346077   34.465401   93.612999
H   75.737411    7.305103    7.192207
H   46.873726   92.114876   77.242859
H   31.650669   94.420135   48.642590
H   32.451279   43.944450   83.989197
H   85.965981   60.097469   56.186089
H   90.994713   90.211372   53.761600
H   10.762653   54.759903   84.898026
H   79.227196   16.518293    2.628594
H   14.746048   37.596546   43.112030
H   65.517792   49.666183   61.183685
H   29.601219   60.423225   12.039655
H   28.351463   87.114044   94.772614
H   79.189484   52.682777   67.594704
H   27.377558    2.343125   94.999657
H   99.476601   67.682144   83.402809
H   77.735718   52.714890    5.765057
H    2.604148   30.602165   58.399422
H   62.231506   86.765709   17.674004
H   81.549034   99.126549   76.692726
H   31.263350   36.331657    9.986107
H   66.553078   60.824409   76.616562
H   55.772964   88.359650   94.601936
H   76.246033   41.054436   80.783234
H   38.170780   14.782871    6.208450
H   83.112991   50.540024   39.802784
H   90.192101   81.998375   19.177174
H   67.580109   89.798637   36.816170
H   67.128548   18.525009   68.875977
H   47.869476    0.469484   41.413677
H   53.699692    0.579532    0.356367
H   47.460964   88.716080    5.205919
H   10.841551   83.242065   91.877441
H   91.903114   65.981354   15.943885
H   23.837406   43.120747    0.241591
H   74.586227   53.520287   65.831520
H   56.463985   38.680099   28.759468
H   87.947067   84.191559   76.736023
H   14.069003   94.736778   89.561501
H   43.223804   63.677910   97.753662
H    9.488058   73.547348   98.010468
H   96.096886   46.390747   58.650700
H   79.313591   38.597519   17.371407
H    5.985980   27.104288   36.112301
H   98.827621    8.110571   49.478683
H   62.829029   68.213173   55.917961
H   12.942698   79.777138    5.243370
H   21.916372   16.440170   88.663078
H   81.531906   50.999149   44.010384
H   24.955477   83.019798   86.541023
H   49.670952   88.802536    5.090060
H   59.538982   20.341442   45.120995
H   31.788893   64.669601   12.972744
H   99.225136   24.997257   87.162148
H   43.025246   33.229713   94.816223
H   50.193710   93.740875   70.079575
H   89.897530   58.025833   67.225914
H   66.480515   47.641846   96.501495
H   15.580046   59.643379   92.878601
H   88.504128    9.291388   11.705448
H   27.245964   11.969388   64.493492
H   32.818176   10.310856   53.934250
H   37.642254   83.279152   53.306999
H   64.909431   34.633961   20.165628
H   25.065859   77.074547   12.986788
H   48.742081   62.086056   65.416527
H   29.538876   75.766685   46.667091
H   63.155861   41.167316   64.602608
H   93.303955   79.941139   58.656700
H   93.159683   72.784317   31.311350
H   56.832115   71.689407   35.158447
H   83.847267   77.447235   30.405499
H   39.447350   71.989937   79.354843
H   47.581055   85.859459   40.124756
H   54.516140   63.513596   33.791290
H   47.997169   97.615158   24.054274
H   23.641752   68.631798   52.012680
H   42.950058   60.044411   93.799324
H   94.559769   36.270935   74.534531
H   96.108490    0.490264   22.263712
H   89.423843   11.738764   13.651121
H   55.002129   53.689018   44.183636
H   53.657703   68.298401   10.340590
H   83.888084   73.071922   12.713685
H   41.237366   29.679859   50.255287
H   28.828949    8.996903   95.355255
H   22.301161   52.040741   88.748833
H    8.396660   54.976398   92.823555
H    0.400801   70.724098   92.658905
