200
TIME:    0.407, STEP:   407
H   14.602787   61.920757   18.195173
H   29.452763   35.316174   96.676712
H   14.637459   76.447716   53.573845
H   23.471838   78.925697   40.132687
H   13.437061   87.961838   51.257442
H   84.185791   48.282352   60.606327
H    5.778754   55.185638   52.883778
H    6.631003   96.097839   19.144539
H   94.210556   85.002602   43.645454
H    4.982505   72.559624   89.485313
H   18.014547   98.161690   98.239029
H   31.468369   46.480312   20.699471
H   15.272983   92.550255   54.447166
H   96.510223   53.911518   50.313076
H   11.559078   73.230164   42.567692
H   24.432655   19.085541   50.720463
H   92.063568   15.539934    7.323938
H   32.596516   91.195198   40.547234
H   70.581810   23.655951   44.942226
H   90.587555   77.411278   30.996975
H   60.089249   85.094749   18.189449
H   86.311180   55.197655   64.139168
H   90.004333   61.327232   45.129135
H   12.145476   89.581741   91.062424
H   10.505167   19.420511   39.451344
H   18.522852   69.747627    1.440931
H    2.129722   62.147663   55.796417
H   98.342804   77.018539    1.170694
H   18.102310   51.453682   37.360485
H   85.502876   25.238060   92.849091
H   13.143460   58.426273   16.398989
H   28.889214   67.420395   97.714676
H   23.088196   12.579003   75.219002
H   90.899467   63.760117   41.209282
H   39.974293   82.900436   32.948803
H   27.606159   46.114277   81.391464
H   91.057663   70.824547   87.208656
H   24.654505   49.075180    7.658800
H   46.889549   40.420586   48.143749
H   88.481194   39.001743   57.172943
H   80.554001   97.422615    7.067371
H   21.651598   39.605000   34.879314
H   73.694962   83.945587   56.529369
H   36.909225   71.344872   24.721039
H   34.482922   81.390312   50.390450
H   38.709698    9.492352   44.504120
H   83.121201   18.030491   99.840797
H   86.050140   65.548058   41.644058
H   93.538826   22.414745   61.286736
H   56.141190   18.555140   98.647163
H   74.235565   68.382370   21.250374
H   14.754226   38.572369   67.132164
H   56.680103   89.643051   10.113006
H   19.921125   85.707886   84.176208
H   70.130142   72.670906   85.372406
H    3.164833   68.235962   84.116699
H    4.953887   17.377419   47.863194
H   69.233200   62.461605    2.289297
H   24.657295   77.703506   11.165569
H   39.240829   95.051430   63.907066
H   49.878658   12.118191   37.357304
H   92.937340   16.820494   50.346024
H   76.048119   28.665993   79.250809
H   28.172289   65.390594    7.396104
H   74.032921   78.568680   24.758507
H   32.188869   23.049206   35.865097
H   79.937111   19.639395   89.285408
H   96.406227   91.829613   90.577866
H   22.462700    8.110013   59.866058
H   44.275650   44.540688   50.973675
H   58.391903   79.480537   77.748367
H   27.447001   19.432209   43.595833
H   82.794083   28.550228   93.903694
H   13.305967    5.293925   65.434181
H   81.178513    3.574921   59.760384
H   57.534882   13.180740   61.786198
H   94.721725   36.167210   69.783379
H   20.369761    9.010918   42.256981
H   12.800209   37.133682   31.239719
H   65.759727   89.735573   86.341766
H   50.455967   27.279579   98.654465
H   33.979553   65.587173   82.694542
H   10.348166   15.498151   85.393509
H   19.228207   67.320427   99.294525
H   32.961315    1.089797   53.049519
H   29.372179   79.931259   24.306416
H   43.339970    3.132100    2.154181
H   73.942711   12.328828   17.741064
H   70.797104   72.463737   77.772278
H   22.607677   93.532547   53.028240
H   34.242229   36.334450   80.011681
H   82.892166   90.000687    2.011762
H   55.192932   14.978647   90.973579
H   52.539291   88.433868   73.690186
H   29.356535   54.667206   74.895142
H   62.356209   31.443073   21.209667
H   81.570961    8.503000    5.521491
H    2.303761   31.033751   50.174740
H   33.233803   68.105125   53.473072
H   70.108124    0.641140   27.291178
H   17.317106   85.043762   76.803596
H   96.782310   79.183128   64.943420
H   26.641150   31.066921   32.836578
H   29.900558   68.247818   96.794106
H   25.117363   25.278080   30.501862
H   94.034454   18.596607   36.072201
H   73.569244   32.170395   55.482025
H   63.767433   40.686329   12.284011
H   77.040619   37.981640    7.207890
H    9.731368   25.731955    6.354605
H   49.391743   94.615570    0.913347
H   92.699593   67.544861   92.413406
H   54.193531   82.212578   90.302887
H   62.658470   15.797033   70.647491
H   58.277306   88.922653   20.917173
H    7.223125    0.911762   86.468193
H   25.708767   10.794237   86.126938
H   39.923832   35.216393   30.640343
H   25.204536   63.983501   75.285980
H   75.189774   50.007931   55.572514
H   42.297554   22.869183   82.047531
H   11.083374   23.523922   53.100491
H   36.262581   14.779265   28.983204
H    1.616813   61.309139   10.552018
H   71.919319    4.817233   87.289871
H   53.840618   66.921616   22.306934
H   91.235588   49.969681   64.605225
H   71.775803   88.879753   36.413013
H   94.522858   46.438660   81.084503
H   75.839607   23.357805   69.346695
H   55.350266   79.222870    9.793354
H   75.289963   87.707718   13.265256
H   91.892433   90.719727   98.617409
H   92.731865   17.284782   51.762821
H   12.676064   98.350510   48.742928
H   57.910164    1.412521   81.221298
H   69.169197   86.990074   63.652222
H   92.642799   59.006660   80.559692
H   50.678329   46.669075   71.510590
H   43.538406    1.080402   90.817184
H   58.885349   58.157612   20.304489
H   49.550323   46.084965   50.139931
H   49.637043   59.834778   93.751411
H   50.060783   20.482538   80.891792
H   48.151722   64.228523   54.529377
H   52.059040   64.853119   21.847950
H   48.680992   96.046455   46.086143
H   38.092407   67.202316   67.866844
H   69.649750   57.819790   96.284294
H   14.785367   90.498047   83.747429
H   70.333839   64.146118   50.083466
H   40.817265    2.488894   42.918926
H   83.933800   25.594181   97.602074
H   14.324519    4.975982   71.825684
H   20.234718   58.289368   63.774761
H   68.459656   43.942989   59.198803
H   61.059338   65.891716   82.733200
H   48.420368   33.980446   13.636602
H    4.738549    1.105081   96.411667
H   61.807373   50.129883   84.649841
H   55.596363   77.624756   78.975616
H   35.763241   22.190863   34.097225
H   72.407875   27.288843   37.162613
H   17.404613   25.085617   64.053589
H   57.355179   27.754961   11.465438
H   14.790952   59.125626   61.388924
H   72.024170   94.865852   53.992073
H   23.778099   38.530712   54.918385
H   96.342148   27.627121   36.462597
H   34.094036    9.199461   88.522766
H   76.174622    7.619836   35.962059
H   40.393776   59.244259   57.970943
H   40.899624   70.278458   85.725113
H   69.169525   70.543320   78.113838
H   63.675995   93.780273   91.379089
H    6.063399   48.562920   23.446964
H   33.702156   58.137989   93.893906
H    3.210078    9.360123   67.015610
H   71.330757   17.497355   67.181633
H   78.356461   56.246498   88.740829
H   78.368874   91.173904   37.836452
H   22.596092   30.309902   75.712776
H   57.946671   89.992477    9.375274
H   55.117580   25.529457   83.334038
H   87.682579   81.091072   77.708817
H    2.756519   37.632935   84.790016
H   37.167023    1.663986    2.965447
H   82.397987   74.298409   31.369928
H    1.782179   61.918121   68.452026
H   52.650410   57.364872   67.812943
H   55.798103   25.499172   78.108894
H   46.283886   89.467575   22.497263
H    7.809959   21.497015   61.631725
H   32.185856   70.195992   36.678841
H   79.163666   46.796066   21.270010
H   75.735855   10.793231   27.278391
H   10.571347   90.113075    9.103436
H   24.056091   94.087128   42.256969
H    9.686327   12.079174   70.548241
H    6.265950   29.334909   95.428642
