100
TIME:    4.266, STEP:  4266
H   28.829678   30.807312   95.240372
H   82.659248   36.032257   47.091217
H   53.083366   80.817375   73.268288
H   82.192642   56.891289    6.328350
H   56.960876   14.696216   50.035385
H   61.872494   96.586418    1.221891
H   29.389698   49.399181   24.059763
H   84.587105   57.664227   16.503460
H   48.761513   76.134842   31.557077
H   58.261742   77.636803   74.742920
H    3.442096   37.894154   28.827103
H   93.018181   37.523033   89.270882
H   71.844864    3.616165    1.130872
H   43.853325   91.926857   81.884689
H   32.392616   88.971313   45.710148
H   29.998466   38.609184   78.925720
H   81.060738   64.131973   61.739159
H   92.297813   87.244957   51.646389
H   11.712753   57.319099   88.112030
H   77.583427   15.222872    6.781704
H   11.126221   31.523632   41.456627
H   71.365921   49.747162   55.988968
H   28.786781   59.927116   10.294314
H   22.683907   87.845642   90.242477
H   77.007721   47.845016   68.045204
H   27.099485    0.539774   89.263222
H   94.216728   65.146683   84.612831
H   72.588470   55.562164    7.781489
H    3.930606   36.136562   55.515846
H   64.570572   85.255974   22.523167
H   83.949532    4.596491   71.866600
H   35.114941   34.646469    4.339066
H   70.849586   56.361290   82.111923
H   58.350311   82.769348   92.032036
H   74.729782   36.443321   84.498001
H   43.473469   19.560627    6.016534
H   88.963913   48.306137   44.609364
H   87.670601   80.882362   23.481594
H   65.005554   88.469475   30.904791
H   61.383018   12.814338   73.675110
H   43.700485    2.562396   42.850811
H   48.217361    3.317381    3.222110
H   47.986393   89.081879    9.611948
H    6.946428   84.264069   97.841919
H   86.611595   63.574425   21.163965
H   23.050426   44.284229    0.489566
H   75.062790   56.837608   66.416985
H   56.467243   39.308380   32.533806
H   89.730453   79.139252   74.302948
H   15.348369   95.664772   85.294777
H   43.219151   57.788826   98.396835
H   12.452379   67.887238   94.006226
H   97.361824   46.744446   55.107662
H   77.900658   37.602043   20.063007
H    1.129198   32.450260   36.631214
H   98.903946    8.046347   47.402100
H   66.696304   66.453056   61.719551
H    8.400578   74.016502    3.672081
H   26.727140   19.017750   83.980293
H   77.506256   55.687984   42.275398
H   28.803579   80.182762   81.784706
H   47.505943   88.234756    2.329889
H   63.680515   16.178734   40.938042
H   35.977882   65.001892   11.316410
H    1.646297   20.125290   92.842735
H   39.277901   30.197212   98.423019
H   45.299637   95.850037   73.024582
H   85.683861   61.514420   70.142067
H   69.520462   43.258774   92.675964
H   16.815897   62.711716   92.750153
H   86.567162    5.140896   10.973618
H   22.216228    9.944812   68.959404
H   28.840742    7.293713   52.370064
H   36.299129   79.419182   49.682518
H   67.850716   34.720989   24.790007
H   26.508112   80.983849    8.882370
H   54.280724   56.798725   66.495308
H   32.404766   71.778267   50.036072
H   66.081184   40.988140   65.283012
H   90.312408   76.619164   53.401482
H   94.352951   73.415390   34.957195
H   61.409256   72.087784   30.057650
H   87.706306   78.465515   36.215466
H   43.643799   77.209785   73.783157
H   44.610916   82.044167   34.211472
H   53.112049   65.754097   38.027298
H   52.071220   93.179962   26.962980
H   24.623499   63.747963   51.378349
H   44.215927   56.647972   93.300423
H   89.166794   33.761070   76.715363
H   98.604858    3.784055   23.551920
H   93.937225   16.326035   14.813440
H   58.912361   55.519409   48.900860
H   59.553768   71.998276   14.453501
H   82.833504   67.608208   14.115333
H   46.275711   27.271217   47.104576
H   23.987232   12.497474   91.847122
H   22.525015   52.560120   87.772438
H    5.490796   55.239346   87.714470
H    4.189624   69.158516   86.782852
