100
TIME:    5.224, STEP:  5224
H   64.044594   42.953865   94.363297
H   56.200813   87.944427    7.495040
H   69.552917   49.739197   62.025822
H   82.353439   17.421555   53.818779
H   48.380157   91.484146   24.060459
H   47.013378   95.548546   96.096123
H   79.179726   14.086430   98.976608
H    9.290199   40.543987   28.543446
H   25.212044   84.027023   71.255760
H   32.081047   91.392265   12.254728
H   14.331268   76.441605   36.547512
H   56.457253   85.542900   21.078871
H   10.712723   45.685127    5.938945
H   96.420052   88.974037   54.789719
H   44.043098    3.399013   99.658478
H   91.477539   54.818924   99.403046
H    4.024063   27.497929   48.949677
H   12.779483   40.635769   18.435038
H   26.633995   97.504974   38.582233
H   51.771645   94.877480   72.006844
H   54.277153   36.151825   15.456329
H   63.210312   51.018921   74.406433
H   15.996100   52.135765   82.885025
H   33.672817   99.322479   19.093109
H   42.743317   71.871078   75.120277
H   22.732382   72.224731   99.176941
H   11.607126   25.320984    3.617342
H   91.756081    0.278379   39.450737
H   24.762199   23.054060   10.231289
H    1.305326   61.545708   98.682076
H   21.651981   90.501877   96.072685
H   95.603889    8.180184   15.652168
H   38.328754   86.269936   68.416130
H   98.827332   94.974388   51.671959
H   50.917191   64.025742   42.832764
H   26.750753   94.594414    3.002766
H   80.848267   13.221172   20.095928
H   48.073597   63.355206   91.085091
H   24.565258   67.595085   38.067535
H   71.150291   23.129650   49.048313
H   78.228500   35.430923   65.420876
H   62.117119   46.314285   48.224934
H   56.238209   94.826721   78.808449
H   45.772945    0.327402   91.511276
H    3.512789   25.779793    3.141883
H   10.690189   62.556629    4.383990
H   82.547165    8.936387   75.611656
H   56.518406   49.175476   91.809471
H   17.734009   99.799011   36.086365
H   35.440701   10.243971   18.291222
H   43.146061   65.300003    8.496285
H   59.008919   78.991638   31.116112
H   17.232716   52.299255   99.466698
H   55.713387   21.968178   62.336998
H   24.852562   16.411097   44.780704
H    0.102169    7.038582   14.789520
H   27.430939   38.810570   52.833351
H   37.065323   83.545143   78.996689
H    2.283354   59.495941   10.433285
H   14.289452   29.322102   15.027596
H   89.234253   35.632000    7.092486
H   13.506651   79.317825   58.986580
H   28.717314   50.806931   75.245087
H    1.761754   70.220490   85.307953
H   39.672050   43.612095   82.057213
H   80.427483   82.572624   55.066978
H   68.437164   28.970379   19.277084
H   19.508537   16.303370   15.940009
H   17.264738   74.423012   32.592491
H   36.224045   10.893673   90.732880
H   56.147270   39.959442   99.480965
H   43.224243   78.150482   39.098618
H   66.376770   59.904175   27.804649
H   15.209347   18.792419   92.761681
H   14.041835   36.087765   97.412201
H   49.158577   42.382370   44.420238
H   41.260349   73.765327   83.437477
H   77.413345    9.135410    2.940583
H   12.023757   38.174191   75.968712
H   43.330833   24.442169   70.868988
H   13.097322   83.326340   92.215584
H   33.288834   78.344254   49.950096
H   48.305229   94.483093   27.450949
H    9.553213   59.188156   86.285370
H   97.963127   22.120201   41.344124
H   31.060917    0.939528    4.553550
H   16.053885   23.525574   72.643982
H   40.043655   87.048920   41.416237
H   64.096298    3.308720   85.465218
H    4.466367   94.344894   10.963600
H   37.810295   55.511486   43.783123
H   64.821999   88.374313   33.065636
H   20.321779   84.267097   22.984516
H   52.147064   30.107130   79.045479
H   66.271400   81.795647   36.127110
H   25.402603   89.442047   97.622330
H   47.945580   67.475349   36.752182
H   26.040625   60.716919   72.438240
H   59.853760   59.368908    7.471558
H   63.692173   44.576954   94.495804
