100
TIME:    4.067, STEP:  4067
H   42.287262   49.056671   95.422562
H   88.155312   25.248133   34.542885
H   49.662750   66.500282   75.603355
H   82.159241   65.089836   17.236521
H   58.743301   98.745491   55.431244
H   64.958626   96.802010   81.514946
H   39.818745   35.961155    8.497705
H    0.228113   40.448795   34.775593
H   53.653313   95.267822   44.084126
H   63.700111   74.779457   66.951263
H   21.952591   29.886906   47.995129
H    0.612591   27.548136    3.435991
H   84.543503   15.650570   20.904617
H   53.706764   92.540230   66.741669
H   29.971889    6.746760   55.276638
H   37.999832   56.014397   95.444275
H   97.063087   50.970257   43.623405
H   88.046715   96.922279   58.546833
H    8.613247   48.970245   77.626999
H   82.945885   19.448919   93.232933
H   22.935165   51.335270   46.857040
H   52.287598   49.482986   72.935669
H   31.443718   61.545570   15.988130
H   41.173149   85.458954    5.021549
H   84.125275   63.627220   66.575539
H   28.007387    6.427559    7.970964
H   11.376505   73.418106   80.665382
H   89.380310   46.273514    1.203293
H   99.603333   18.082123   64.922920
H   56.939850   90.181175    6.703751
H   76.118401   86.751274   87.610847
H   22.549910   40.144051   22.761467
H   56.832333   70.921303   64.184433
H   49.942245    1.006547    0.415776
H   79.676239   51.486137   72.379333
H   26.173864    3.969299    6.648431
H   69.876480   55.593735   28.928885
H   95.896477   84.523125    9.439127
H   73.404510   92.805595   50.189552
H   80.127113   31.444084   58.018337
H   57.300964   95.733826   38.162457
H   66.102341   94.386551   93.872894
H   46.272289   87.888535   95.237816
H   19.653433   80.929993   78.384033
H    3.873919   71.426727    4.134521
H   25.617786   40.488605   99.681099
H   73.508102   46.015526   64.507027
H   56.456615   37.258743   20.220802
H   83.912521   95.621368   82.240356
H   11.174701   92.637383   99.214088
H   43.234333   77.000755   96.298615
H    2.781889   86.352188    7.069987
H   93.235222   45.590576   66.665749
H   82.510063   40.849579   11.282210
H   16.973373   15.010126   34.938366
H   98.654953    8.255865   54.176529
H   54.080845   72.195076   42.793053
H   23.218498   92.809395    8.798077
H   11.032995   10.609169   99.256920
H   90.639114   40.391621   47.935432
H   16.249933   89.438011   97.301216
H   54.568840   90.087021   11.334350
H   50.169613   29.758717   54.584068
H   22.312658   63.917976   16.719860
H   93.748177   36.019276   74.310982
H   51.502846   40.090126   86.656586
H   61.265549   88.969330   63.417095
H   99.430092   50.133621   60.628719
H   59.602585   57.557648    5.156477
H   12.784185   52.701897   93.169189
H   92.886116   18.681099   13.361065
H   38.624405   16.549545   54.389278
H   41.815887   17.136524   57.472900
H   40.680798   92.011543   61.506645
H   58.256290   34.437077    9.703921
H   21.803057   68.230553   22.272369
H   36.212036   74.046677   62.976002
H   23.055386   84.789665   39.045464
H   56.538658   41.572666   63.062691
H    0.071716   87.456429   70.545555
H   90.460159   71.356644   23.063799
H   46.477272   70.788162   46.697754
H   75.116982   75.143585   17.261639
H   29.953630   60.181099   91.959641
H   54.300385   94.490776   53.502350
H   57.692608   58.444092   24.208191
H   38.780464    7.648903   17.473921
H   21.420752   79.680473   53.447723
H   40.086288   67.728157   94.927986
H    6.760690   41.948990   69.600845
H   90.460968   93.038185   19.349405
H   79.213242    1.361004   11.021383
H   46.156029   49.548134   33.511883
H   40.319065   59.927681    1.036069
H   86.273857   85.432457    9.542745
H   29.839142   35.129219   57.383125
H   39.782715    1.077580    3.291798
H   21.794737   50.865753   90.957726
H   14.970695   54.381535    4.382210
H   91.828484   74.265907    5.952622
