100
TIME:    5.287, STEP:  5287
H   59.784096   37.176430   94.305618
H   54.460854   91.358017   11.467395
H   70.636307   54.271744   61.286098
H   82.364014   14.825794   50.365295
H   47.815872   96.533875   22.352463
H   46.036213   95.480293    2.335112
H   75.877647   18.340626    3.903318
H    4.338524   45.994099   22.758801
H   23.663383   77.969849   67.290382
H   30.359583   92.296852   14.721914
H    8.471161   78.976562   30.479221
H   54.052551   88.700783   16.594629
H    6.692551   41.875481   99.678886
H   93.300621   88.779854   59.584221
H   44.809258   97.771652   96.630371
H   88.944504   49.308731   94.173553
H   98.957924   31.664700   54.684814
H   14.126630   37.570652   16.251196
H   27.615246    0.147619   41.901134
H   50.074463   93.539345   76.296181
H   50.538643   29.879799   13.746410
H   69.250183   51.102554   69.041397
H   15.154840   51.623390   81.082581
H   27.819130    0.076142   14.414163
H   40.490021   66.875183   75.585548
H   22.445192   70.362686   93.252426
H    6.174559   22.702152    4.867457
H   86.440071    3.218979   41.533401
H   26.132057   28.769732    7.253395
H    3.720932   59.986473    3.690319
H   24.131424   96.151459   91.088326
H   99.581764    6.439678    9.819939
H   42.766613   81.660484   74.091667
H    1.489254   89.200798   49.017799
H   49.351227   59.263443   46.668846
H   32.227070   99.528786    2.804617
H   86.891022   10.913803   25.060101
H   45.469906   62.202122   95.531120
H   21.905811   66.222343   31.962297
H   65.216164   17.231812   54.005276
H   73.922821   37.592415   66.905128
H   56.455040   49.141960   51.184307
H   56.780865   95.204514   83.359261
H   41.750370    1.384866   97.671310
H   98.047935   23.294342    8.533114
H    9.877287   63.758259    4.640117
H   83.039352   12.362714   76.216316
H   56.521770   49.824356   95.707558
H   19.575386   94.581055   33.573036
H   36.762012   11.202871   13.885086
H   43.141254   59.217834    9.160426
H   62.070671   73.145950   26.980103
H   18.539608   52.664551   95.807976
H   54.254608   20.940063   65.117088
H   19.836239   21.932104   45.316631
H    0.180648    6.972312   12.644852
H   31.424675   36.992744   58.825157
H   32.374161   77.595634   77.374008
H    7.251852   62.157791    5.596725
H   10.132174   34.164669   13.235725
H   93.208282   32.702427    2.180585
H   11.270899   78.731430   56.135834
H   32.994450   46.507980   70.924988
H    6.087921   70.563675   83.597794
H   42.172882   38.580151   87.924049
H   76.557274   79.440697   58.792030
H   63.382629   31.148453   22.318890
H   15.156692   19.906576   18.951773
H   20.404837   69.896233   28.641052
H   37.500175   14.062490   90.600220
H   54.146797   35.672989   98.725380
H   38.029839   76.059647   43.711433
H   62.269119   56.788109   26.189178
H   13.822666   14.805172   89.018364
H   17.079237   36.177647    2.188043
H   50.648117   46.420326   40.181370
H   46.980587   68.305122   84.551628
H   80.373199    5.015940    6.419952
H   15.044774   37.989140   76.671425
H   40.241684   21.010315   65.441467
H   14.330074   83.978104   95.981010
H   38.016045   78.755692   44.682152
H   52.290314   95.536682   33.450924
H   13.887491   64.579147   80.531006
H   94.895607   18.179337   35.236961
H   29.610790    3.253627    8.928563
H   20.261511   18.944962   75.648056
H   41.057831   82.004959   40.761108
H   65.403671   99.801064   84.949959
H   98.896301   91.753220   13.215574
H   40.388512   58.913059   45.113567
H   69.483360   93.112579   34.265823
H   24.360216   86.157021   27.856403
H   58.235481   33.929272   83.293480
H   65.182243   76.152794   37.574833
H   30.606140   86.954193   94.368317
H   42.944878   71.090813   33.129028
H   26.271818   61.253326   71.429832
H   56.852570   59.640476    2.194491
H   67.605606   42.960522   88.427094
