200
TIME:    0.950, STEP:   950
H   31.287802   60.118656   27.480137
H   34.292053   43.243347   18.720936
H    3.256668    0.214732   80.319511
H   41.775040   85.272408   25.933372
H    7.671876    1.724131   43.450409
H   66.521057   33.544479   44.534485
H   13.645858   54.800362   63.393963
H   18.799330   19.544167   99.870697
H   16.261618   76.862076   30.398849
H   85.867844   64.952003   68.067238
H   36.940754    9.760950   15.398338
H   33.713745   60.973763   46.572632
H   28.600246   10.572367   32.192253
H   70.845818   56.202465   76.478752
H   85.343399   77.410210   41.231651
H    8.605478   96.712875   39.006805
H   17.616627   40.969162   80.970596
H   19.703159   17.299736   30.880220
H   88.648392    3.997777   52.935684
H   92.315086   69.954308    9.947455
H   66.605812   12.200443   93.312485
H   74.222603   75.952888   43.214081
H   73.743996   57.379181   32.100151
H   23.646816   94.532341   89.359749
H   34.106598   41.259079   20.075649
H   18.073362   93.846069   83.506920
H   12.645482   73.043129   77.628769
H   10.805158   99.418449    2.599466
H   40.972424   34.948921   34.180916
H   60.965042   39.784885   74.065811
H   12.434530   81.112038   17.062866
H   19.014942   80.146957   11.083912
H    9.968071   24.262777   81.851562
H   72.928169   64.352531   50.700348
H   13.915648   60.463570   28.817671
H    9.858603   33.735458   87.606407
H    6.642484   59.104675   91.285133
H   97.795792   63.121212   83.245163
H   26.793015   20.977123   60.213684
H   83.273743   36.768795   35.962006
H   80.715569   72.056488   25.090698
H   48.678970   28.218275   18.777622
H   63.918064   71.471733   76.692192
H   35.699539   97.717690   44.140621
H   53.036278   97.957214   69.985710
H   31.068247   95.361015   50.409626
H   93.353821   91.426849   11.745215
H   72.830589   65.539772   22.123367
H   14.538581    1.808994   61.678226
H   36.709568   21.005583   75.675552
H   61.318436   61.509529   99.731117
H   93.997887   47.918438   78.806465
H   71.327843   74.118462   17.204540
H   11.839367   97.166763   92.217308
H   47.146103   60.594757   67.811241
H   96.204521   54.857567    1.897605
H    3.404286   19.432228   42.038471
H   75.165634   75.084595   92.487816
H   13.199453   88.192978   24.298313
H   26.682049   92.002357   53.869156
H   48.120056    1.524145   21.491913
H    2.697152   18.106821   54.509483
H   91.007629   39.913895   60.931171
H   41.329399   66.165291   19.519882
H   82.761719   86.663635   46.963367
H   10.887959   44.144585   45.625443
H   59.654152    8.185342    0.503996
H   93.365440   93.064156    1.328448
H   41.776764   15.447879   52.993217
H   41.149937   54.004826   50.944675
H   58.153694   88.872177   92.272888
H   12.186104    5.159703   39.794849
H    0.027969   37.937725   75.721115
H   30.996515   93.358528   81.242958
H   87.790359   12.364825   34.228546
H   71.259850   94.011009   58.237923
H   92.426636   56.381813   62.102184
H    0.258020   18.898653   23.689125
H   16.933424   61.319176   19.196978
H   57.576145   86.707214   60.590363
H   73.502144   18.102327   90.592651
H   57.856358   55.820950   65.908073
H    8.229661   21.454405   69.506020
H    1.521104   85.076302   16.991779
H   13.624977    6.831858   37.661232
H   44.669502   60.932556   13.003029
H   67.676308    4.263592    3.399081
H   69.427101   92.119507   38.221527
H   87.417862   73.785278   79.727661
H   19.887955   17.872366   47.054379
H   11.480659   41.021984   77.596451
H   79.109825   94.764862   13.859928
H   80.989197    8.854610   75.508652
H   28.190050   68.925606   88.599983
H   43.114845   47.322090   97.510475
H   39.869301   43.583435   95.678917
H   88.936790   89.720573   28.907173
H   98.716469   41.425831   57.669579
H   20.929802   62.665680   55.397385
H   79.549477    9.463875   27.423746
H   41.543972    0.057134    2.372850
H   16.972857   87.398224   61.948204
H   37.897034   11.222184   40.424046
H   55.991753   69.250366   18.358078
H   24.397558   18.142174   48.106525
H   15.532080   92.011780   10.649384
H   87.952324   36.957539   50.601261
H   60.567150   61.534775   91.287666
H   90.840157   31.127441   33.464710
H   27.174463   18.161058    9.012186
H   56.535934   89.896965    1.295388
H   14.501936   81.199402   98.598549
H   44.762535   88.513718   78.491875
H   60.819084    4.090713   56.646049
H   40.156868   11.533559    1.877695
H   85.063347   85.028297   10.964640
H    3.383138   18.440386   92.457077
H   37.168896   61.943417   19.786308
H   45.825470   84.370026   48.450375
H   89.519585   60.845394   75.829758
H   47.964851   26.477528   64.254372
H   87.655167   10.660648   69.072250
H   49.353706   91.877762   45.092136
H   93.617020   41.769806   86.772881
H   55.671410   91.373543   69.331001
H   73.733047   81.778763   11.823124
H   77.738472   52.505051   43.634567
H   59.898506   93.138512   40.999050
H    1.205173   26.783329   68.710075
H    2.158560   20.784115   78.597481
H   77.269615   59.834747   30.544445
H   54.447731   93.093307   26.070530
H   90.119331   17.137442    2.657477
H   66.106339   31.206532   58.445095
H   39.500507   88.532166   23.791077
H   43.447784    0.715631   73.221626
H   70.068176   88.373756   90.683739
H   97.274406   42.052410   71.980034
H   64.871429   54.262756   71.382164
H   43.832542   75.038933   75.729248
H   85.767731   42.189339   37.844940
H   24.553211   62.583511   62.798138
H   32.181519   69.827980   75.436264
H   25.179359    0.826824   89.889870
H   73.675278   46.219940   72.285248
H   71.955482   74.207474   95.841362
H   61.523552   93.668510   42.198162
H   23.265465   46.989784   64.751488
H   84.165985   35.148529   90.886276
H   32.094818   96.426338   63.427185
H   51.195671   73.367905   45.984203
H   63.674950   87.463295   25.902534
H    9.159199    5.290508   78.541229
H   28.678211   17.439875   58.406414
H   41.766720   72.630783   73.597298
H   84.579140   45.289387   75.905960
H   66.743210   82.176910   89.162766
H   56.140404   25.268219   26.357986
H   79.886177   99.058853   76.273705
H   55.719585   27.974207    5.487503
H   60.930168   55.564552   64.538094
H   10.267805   19.376892   29.393120
H   95.781334    3.614047   36.936832
H   37.336197   41.037319   40.823051
H   52.156013   46.179893   16.800718
H   24.146343   41.848240   58.420635
H   62.673958   86.083199   59.748440
H   24.252445   63.236069   77.372147
H    3.721182   25.861269   35.180412
H   58.873962    5.101752   82.408051
H   65.801147   14.077365   35.916489
H   21.634779   39.075226   59.638405
H   51.391167   46.944912   70.446609
H   62.482635   57.556793   90.711975
H   38.438293   89.695511   65.847252
H   22.823174   51.502304   23.984215
H   28.123928   75.101883   16.607170
H    8.022650    9.877968   73.958878
H   57.443241    4.873904   60.831814
H   52.527267   62.071220   96.400795
H   68.455246   10.633100   25.211945
H   33.548370   30.972744   95.535889
H   32.943089   89.417007   20.133728
H   66.942574   26.534077    3.310353
H   94.704559   57.539474   75.471725
H   14.123857   42.214828   87.507668
H   56.074585   92.363365   14.997072
H   56.311020   97.299019   50.370667
H   86.056374   64.339272   74.657883
H   62.524681   54.411083   74.673355
H   81.736588    7.534095   74.231270
H   41.832489    4.224272   15.580955
H   19.871262   34.415375   74.072044
H   22.699949   91.866776   47.621944
H   60.529137   22.542675   19.493801
H   77.061539   12.125647   19.839027
H   14.180728    4.919786   27.431013
H    8.275024   83.295235   26.943253
H    2.445326   13.598532   46.263374
H    0.602461   10.938086   87.884674
