100
TIME:    1.706, STEP:  1706
H    1.952960   65.572433   97.584122
H   53.814766   97.241081   85.614250
H    9.079458   96.641029    3.308928
H   81.762955   62.362999   46.652119
H   79.890564    9.500936   19.447834
H    1.561501   99.359856   47.696949
H   63.557171   76.535500   23.864281
H   85.798058   36.192455   51.555412
H   11.691261   22.268570   92.700096
H   28.218737   40.878990   74.496239
H   41.567062   34.886951   75.418365
H   90.726257    9.203585   71.494179
H   34.743927   58.492027   55.565796
H   70.610527   99.817482   87.067223
H    1.250581   17.640465   68.768051
H   32.930389   62.517990   91.428482
H   86.907623   94.817490   28.682325
H   37.600891   11.737961   40.402634
H   71.833275   49.923477   53.239933
H   46.554611   69.583359   32.485023
H   63.040176   86.379578   10.940918
H   25.930363   46.351662   73.992836
H   62.966469   80.747429   83.539017
H   60.535637   57.142521   80.372162
H   68.567619   50.872368   49.149323
H   38.836521   76.774307   29.269304
H   14.968124   71.562332   33.819981
H   88.594681   36.070019   23.163214
H   48.266281    3.873924   76.529015
H   66.408943   48.616562   19.010628
H   83.210945   75.030548   74.414246
H   73.475098    5.379248   41.331093
H   90.525833   43.662834   51.486908
H   50.184074   17.377876   99.880844
H   38.366524   29.959755   28.612000
H   20.884899   18.498728   14.774941
H   43.426476   42.059425   42.891361
H   93.479820   27.729473   42.828625
H   74.026169   44.089928   78.615295
H    2.507677   52.473766   72.259537
H   18.655380   14.720389   82.537155
H   78.295624   88.423714   82.950912
H   25.935614   73.730316   24.699833
H   70.419716   41.363136   47.537342
H    8.673054   64.578323    2.096731
H   56.077770   95.456123   90.098183
H   54.093861   17.769190   42.200874
H   56.330524   12.948252   74.135551
H   14.899518   91.158836   76.422226
H   61.670071   56.715809   64.343468
H   43.414463    4.939932   71.404648
H   88.041801    5.434633   62.067570
H   44.268631   31.900696    3.787313
H   37.185284   79.372200    7.098131
H    4.944662    8.061663   14.882757
H   95.700821   10.739023   34.550537
H    4.405666   40.321236   18.242376
H   99.024994   15.776814   69.612869
H   24.825607   10.850842   80.513275
H   46.439625   58.917797   15.086938
H   67.316483   99.236153   81.382317
H   38.361877   12.065340   18.162682
H   89.949600   90.816536   16.520119
H   60.188477   51.074707   80.823402
H    0.035179   24.588379   54.438274
H   96.543129   57.462715   47.057384
H   50.693222    7.344650   49.428417
H   62.520683   15.105016   47.759266
H   41.929657   27.204041   53.236183
H   64.944153   33.949615   98.140778
H   67.859108   79.324348   41.686649
H   33.299854   94.906097   81.527428
H   95.756775   33.920361   18.003819
H   92.644402   41.420708    1.815923
H   44.424385   31.071135   30.724770
H   65.992790   16.910810   81.137047
H   21.848356   78.682846   21.219542
H   12.131312   39.169563    8.655034
H   43.326553   48.504734   36.712578
H   15.860209   16.041128   73.947792
H   44.267132   46.931011   81.952507
H   69.326981   55.369034   44.123123
H   25.741314   35.731140   92.388031
H   67.528694   58.146221    7.605690
H   69.261353   42.173393   82.374939
H   12.025570   71.720650   60.253090
H   81.094597   79.312820    4.891767
H   83.418396   68.708130   78.009712
H   91.086128   99.185356   14.242125
H   15.504845   39.086426   85.202858
H   93.839058   65.549057   69.489334
H    4.513759   23.813154   66.026329
H   94.744774   78.748520   50.896072
H   12.118641   16.713728   41.845291
H   27.096882   96.915833   55.288383
H   34.830215   28.362528   79.331726
H   27.187870   65.584328   39.075714
H   13.128993   30.763245   28.740265
H   27.442314   44.204189    2.148153
H   45.189743   34.882671   33.373970
