200
TIME:    0.978, STEP:   978
H   32.148170   60.025730   27.958920
H   34.541565   43.652115   19.857677
H    2.669805    1.440251   81.698662
H   42.718826   85.599678   25.201180
H    7.374580    2.433801   43.047836
H   65.610168   32.784515   43.705734
H   14.051528   54.780495   63.935925
H   19.426794   20.753166   98.876923
H   17.398680   76.442307   29.715736
H   84.882187   64.559578   66.962807
H   37.916691   10.359068   16.283165
H   33.829529   61.721123   47.906815
H   29.287472   11.501734   31.044670
H   69.522423   56.320599   77.827995
H   83.991592   77.625755   41.162758
H    7.789358   95.559311   38.402786
H   18.936443   42.279953   79.614090
H   19.038311   18.645828   30.381784
H   89.580002    2.984102   53.347870
H   92.404167   69.569786    8.862010
H   66.941841   13.598125   92.029678
H   73.599251   77.023140   42.135071
H   72.905525   57.175598   31.428352
H   24.239887   94.787621   89.271950
H   35.323608   42.385216   19.076534
H   18.050184   95.088715   82.582146
H   13.187737   73.604958   78.754562
H   11.447789    0.573544    2.673139
H   42.151730   34.097847   34.016960
H   59.699646   40.535023   73.097244
H   12.397974   82.281837   17.097099
H   18.505772   80.803207   11.773300
H    9.291527   24.865248   82.193573
H   72.001472   64.383080   51.189758
H   12.571932   59.306694   28.604635
H    8.941225   33.097580   87.924278
H    7.446107   58.500336   91.495338
H   96.410873   63.845501   81.986282
H   25.756729   19.974537   60.836075
H   83.005219   36.653652   34.868256
H   80.723900   70.748474   26.020065
H   50.072647   27.631079   17.947323
H   63.414021   70.828514   77.731895
H   35.637161   99.077614   45.141979
H   53.992989   98.811493   70.996147
H   30.674166   94.632347   50.714146
H   93.881470   90.054962   12.359061
H   72.148918   65.539345   21.116776
H   15.621436    0.746453   61.698414
H   35.707569   21.131941   74.491013
H   60.652359   61.155128   98.621559
H   92.927635   48.400372   79.408455
H   72.083214   73.317802   17.570103
H   11.422615   97.757645   92.631950
H   45.960922   59.972046   66.905693
H   95.845634   54.167671    2.814562
H    3.324384   19.538185   41.738117
H   75.471542   75.735504   91.982384
H   12.608625   88.733871   24.975498
H   26.034451   91.845131   53.351547
H   48.029373    0.977864   20.673790
H    3.200348   18.173151   54.724174
H   91.779022   40.493881   59.986423
H   42.007866   66.205238   20.145050
H   83.211823   87.081055   48.108387
H    9.789590   45.232353   46.128738
H   58.608253    7.594701    1.082476
H   93.208641   93.127815    1.882850
H   42.772675   15.826259   52.638817
H   40.988758   54.492847   50.943180
H   58.141411   89.356461   93.021851
H   11.399170    4.423731   39.598850
H    0.916725   38.421795   74.783524
H   31.908739   92.743080   82.058144
H   88.131302   12.818080   32.911987
H   71.967583   93.022575   58.054955
H   92.308289   57.424187   61.706020
H   99.220901   19.408518   22.731667
H   17.146887   62.565880   18.574961
H   57.154133   86.551056   59.262482
H   74.690529   17.629099   90.176941
H   59.087574   55.317333   65.042473
H    8.120420   21.761541   68.686775
H    0.608039   85.991890   17.904324
H   12.627892    7.127953   36.867729
H   45.458305   59.952881   12.420185
H   68.931129    4.321938    3.463275
H   69.194252   91.077454   39.277573
H   88.274918   73.853424   79.828491
H   19.747711   19.127455   46.746334
H   10.306934   41.263699   77.471909
H   78.914787   95.010529   14.470890
H   82.319427    8.538822   74.711197
H   26.934427   67.919655   89.368813
H   43.824287   46.943336   98.676643
H   38.709755   44.209457   94.362358
H   89.316612   88.752007   30.113075
H   99.898018   42.198078   58.341103
H   20.295341   62.385193   55.496613
H   80.036324    9.918812   27.430582
H   42.793240    0.831372    3.691405
H   18.014002   87.821838   61.793755
H   38.477448   10.198903   40.815296
H   57.337151   69.302063   19.470039
H   24.360441   17.774208   49.014317
H   16.640623   90.640961    9.338460
H   87.327477   36.968006   50.064533
H   60.402126   62.609833   90.205025
H   91.551735   30.774002   34.818653
H   28.073923   17.770662    9.149225
H   56.904327   89.653648    1.315088
H   15.626154   81.903503   98.917488
H   44.276222   88.838638   77.882835
H   60.724236    3.487081   55.924110
H   39.222481   12.699487    0.895913
H   83.920677   84.209267   12.227819
H    2.231903   18.834681   92.783493
H   37.026836   63.321606   19.226616
H   46.888779   85.421265   47.066631
H   90.258507   61.404232   76.874374
H   48.257088   26.663593   63.336941
H   86.447128    9.997349   69.895767
H   50.028755   90.696854   45.922810
H   93.204514   40.762253   85.546684
H   54.833580   90.680336   68.404945
H   74.758652   82.545029   11.282604
H   77.042488   52.635788   42.553207
H   59.286049   93.358116   41.235531
H    1.549760   25.769794   68.071983
H    3.515700   20.651402   79.074501
H   78.399895   58.834991   31.614483
H   53.372993   93.371017   26.730839
H   90.027901   18.499662    2.865826
H   64.733383   31.924412   58.789669
H   40.883717   88.025879   22.504425
H   42.702026    0.679696   72.809120
H   70.114532   88.445107   92.077629
H   97.513237   41.178158   71.537621
H   65.603302   54.654327   71.375542
H   43.847710   73.696098   74.951218
H   87.153931   41.365929   38.749420
H   23.264263   63.434265   63.450863
H   31.281374   70.343239   74.491837
H   23.896339   99.813255   90.353859
H   74.991409   45.291321   73.200836
H   72.981514   74.689835   94.500237
H   62.185783   93.545891   41.997677
H   22.500908   45.947517   64.590843
H   84.914520   33.979477   90.607925
H   32.987335   96.732033   62.379364
H   50.208839   73.843430   45.772823
H   64.853539   86.688484   25.025078
H   10.459976    4.243542   77.558350
H   29.418362   18.082560   57.714382
H   42.877026   73.370346   74.103798
H   85.410347   45.358814   76.767502
H   67.036301   83.016663   89.494308
H   56.538490   24.818970   27.013969
H   78.604652   98.953323   75.235283
H   55.405666   26.831697    6.561946
H   61.205208   54.427010   63.793587
H    8.953115   19.231789   29.150551
H   96.986595    2.393258   36.925190
H   38.363937   41.859875   39.625160
H   51.887917   47.129982   17.075811
H   24.628757   40.957325   58.267574
H   62.191811   85.630318   60.045269
H   24.276905   64.509964   78.529984
H    4.101725   25.770212   35.114296
H   60.151749    4.890452   82.092743
H   65.266235   14.410350   35.914139
H   20.667440   38.035202   59.724388
H   51.932167   45.741680   69.658768
H   62.137741   56.887192   91.361603
H   37.136902   89.484879   64.530693
H   23.687065   51.654297   24.012947
H   27.836285   75.976669   17.778358
H    8.270800    9.904671   74.316910
H   56.727070    4.222968   60.504436
H   51.195435   62.371574   96.795784
H   67.944046   11.636540   24.560982
H   34.113083   31.006924   96.558075
H   31.653767   89.387314   20.688507
H   67.552254   26.585880    4.340416
H   95.066650   56.325027   75.356369
H   14.710012   42.451096   87.647804
H   57.049561   91.883781   15.617487
H   54.965836   98.485054   51.350449
H   85.245461   64.464027   74.977890
H   63.033852   54.258770   75.027115
H   83.074081    6.607740   74.031319
H   41.602951    4.985224   15.224338
H   20.493225   35.081558   74.713554
H   22.210806   92.984238   48.186230
H   59.568153   21.292072   19.402210
H   77.129898   12.194353   19.455414
H   14.366847    5.683355   28.376081
H    7.461254   82.738747   26.153595
H    2.071946   13.676878   45.011116
H    0.310419    9.989466   87.495667
