100
TIME:    3.598, STEP:  3598
H   74.004303   92.066467   95.851944
H    1.184643   99.821762    4.960705
H   41.601097   32.757988   81.106606
H   82.080521   84.412041   42.944759
H   62.944092   61.153072   68.148117
H   72.229500   97.310112   35.067863
H   64.397362    4.290908   71.821220
H   37.090591   99.875443   77.837914
H   65.182228   40.360428   73.606575
H   76.517174   68.045311   48.585007
H   65.577835   11.015789   93.172035
H   18.514221    4.039909   36.818993
H   14.394004   44.023468   67.516258
H   76.929192   93.985817   31.049541
H   24.266472   48.639267   77.820595
H   56.856873   97.034721   34.376320
H   34.777473   19.950962    0.928484
H   78.027794   19.730110   74.807312
H    1.308780   29.293802   52.917652
H   95.584038   29.408800   61.301201
H   50.766296   98.024414   59.584648
H    7.324112   48.860382   12.875305
H   37.705544   65.359917   29.408115
H   84.748299   79.834045   39.854946
H    0.899756    0.819008   63.111855
H   30.159666   20.401602   51.929794
H   51.819828   92.912064   71.362099
H   28.953371   24.382172   85.702385
H   89.405502   75.530777   87.093361
H   38.955887    1.788930   69.419312
H   57.660885   44.694920   24.716637
H   92.937233   53.100662   66.179176
H   23.795385    5.235895   21.933210
H   30.126083   43.987465   20.172871
H   91.333969   86.938805   43.820778
H   85.390831   67.128082    8.267186
H   24.894356   72.769028   91.973747
H   15.280957   93.103615   76.341774
H   93.199036    3.024363   95.639671
H   24.302387   75.351059   21.117033
H   89.354355   79.639145   27.113020
H    8.253441   73.339661   71.838425
H   42.232517   85.076080   61.359829
H   49.602112   73.072296   32.527603
H   44.555553   89.933105   64.001404
H   31.668499   31.543140   97.777504
H   69.844040   20.509411   60.002495
H   56.431568   32.428192   91.201805
H   70.200912   34.463043    0.947240
H    1.338268   85.502480   32.015484
H   43.270115   22.279980   91.353561
H   79.989059   29.871395   37.860264
H   83.509712   42.871155   93.902901
H   93.373436   48.503319   90.586945
H   54.315323   73.905212   30.949160
H   98.068130    8.749655   70.142395
H   24.349695   85.727776   98.187080
H   58.141594   37.101227   20.879288
H   74.042763   90.792526   35.262547
H   21.588387    4.341399   61.274910
H   86.664986   11.249249   33.867344
H   71.214561   94.452408   32.556374
H   18.328104   61.762138   86.744804
H   90.107658   61.366730   29.454624
H   75.134453   73.478401   30.635584
H   80.314400   63.405586   58.925644
H   98.893753   72.752991   40.774334
H   31.827431   23.310961   38.207806
H   36.226295   91.257004   34.572414
H    3.282329   29.111135   94.156769
H    7.778994   50.592110   18.987762
H   77.295090   32.114655   20.050049
H   72.395065   40.333904   69.497551
H   51.007442   21.690449   89.373558
H   35.645733   33.767956   74.150673
H   10.714684   38.170715   53.828945
H   93.629860   14.695534   54.681767
H    1.020910   15.455713   13.143076
H   34.049759   42.950268   57.827805
H   23.072762   12.998459   10.950262
H   81.285690   66.504623   95.033279
H   11.285932   67.725235   85.914673
H   45.444424   67.314514   72.591644
H   97.687210   20.047630   34.795044
H   77.136368   23.827190   98.966782
H   68.486511   41.215126   91.639130
H    7.457022   41.749016   95.109741
H   13.872568   17.229553   58.324791
H   30.353321   93.841759   98.763802
H   48.227398   61.246147   52.835846
H   71.267578   67.711784    9.444985
H   44.509987   66.094292    2.084217
H   16.093056   35.475128   97.243309
H   94.987679   31.477558   69.412132
H   94.382027   27.442623   98.766045
H   91.101608   53.649910   81.607445
H   77.010162   74.162498   30.265532
H   20.073629   46.872498   98.464760
H   37.312889   52.359859   43.667114
H   62.695057   86.302925   51.133545
