100
TIME:    2.543, STEP:  2543
H   45.349274   88.815331   96.817825
H   30.532127   42.622482   38.411610
H   23.466673   56.857483   93.485985
H   81.903442   27.879278    0.771865
H   72.393631   76.590179   96.754303
H   88.585091   98.453072   30.587408
H   19.692192   33.053246   89.318764
H   20.011513    8.604378   74.704704
H   91.116142   41.794373   40.014309
H    5.347982   52.897072    7.269453
H   63.711365   68.565674   94.795029
H   58.783424   51.158051   11.915712
H   81.501717    7.852350   72.374840
H   29.166664   97.237617   50.764294
H   11.432323   42.875977   28.532137
H   99.275162   89.308929   21.950480
H   19.614029   50.169655    4.887422
H   55.487526   71.034508   11.383274
H   84.873085   85.035187   97.338730
H   24.006340   51.809666   89.471931
H   13.371399    3.052987   88.221786
H    6.180237   47.459854    2.718344
H   51.791313   73.940163   59.592255
H   82.769241   67.181000   18.208046
H   38.630974   84.490448   55.324394
H   34.998653   51.834476   50.815857
H   42.793221   36.767475   50.429455
H   17.971228   75.138359   50.831028
H   66.465820   79.812965   36.962578
H   98.503990   27.901016   85.550072
H   16.137896   50.090618    8.185118
H   26.323616   82.251167   63.845818
H   49.483624   82.424553   26.890478
H   85.548653   40.671921   64.618439
H   17.559361   66.688812   79.579048
H   93.658005   84.250725   11.898137
H   23.706131   11.405424    8.843738
H   58.882484   12.409931    1.894839
H   37.732399   26.008314   97.877014
H   23.671595   74.116661   38.112087
H   61.453724   43.439266    2.256994
H    3.070814   25.988914   22.273405
H   33.145184   78.749557   85.156853
H   16.971441   55.392746   29.375364
H   36.069332   31.557224   73.722267
H   45.279377   11.420612   93.495430
H   61.599514   63.134735   49.868790
H   56.375225   21.565893   25.924324
H   39.363533   21.838444   43.033234
H   79.219109   69.452751    5.804745
H   43.350605   24.133486   80.229828
H   28.717119   27.767414    7.117746
H   61.631630   36.753906   55.177147
H   17.804371   65.719353   44.031464
H   38.312340   81.438370   21.984022
H   96.748093    9.859379    6.057083
H   57.465656   16.170128   97.847801
H   36.699554   36.732941   48.054398
H   90.838249   46.217098   16.255362
H   91.207428   23.251188   91.281624
H   20.115042   60.308903   16.124096
H    8.657631    4.273064   80.292313
H   46.723270   33.740227   59.098557
H   17.662203   55.627785   58.101055
H   33.257587   57.739727   32.385513
H   45.124641   15.852821   96.547356
H   83.538612   36.280987   89.837784
H    4.703308   62.974121   87.772705
H   83.645103   67.062569    0.738939
H   81.904846   76.049385   96.378296
H   41.281395   22.374025   31.644833
H   64.284058   67.127853   42.808464
H   41.183701   92.520042   96.542229
H   74.227745   88.453430   52.070503
H   84.779564   32.262791   94.174179
H   85.776009   70.556267   24.818298
H   97.842529    6.136164   36.024158
H   51.455090   84.440437   54.881611
H   83.458572   46.049137   46.052101
H   74.811806   70.458115    1.839559
H   60.646717   55.590160   31.977329
H   32.127831   60.835281   74.133278
H   78.697006   49.703278   72.108093
H   25.105541   29.769381   31.154846
H   28.506882   89.817886    1.237202
H   92.762329    2.462184   18.377026
H   36.995949   18.456116   44.803421
H   96.892441    1.695839   69.299477
H    8.456678   52.581764    7.394876
H   41.503231    4.647789   15.124475
H   28.092682   10.746907   87.165237
H   66.447327   86.757133   81.978065
H   48.447498    3.831273   15.648504
H   93.018013   67.485847   98.280510
H   12.623459   21.942917   74.522423
H    3.962966   95.311592   36.099838
H   60.750900   13.617919   90.939095
H   16.202055   37.889801   15.346121
H   87.570915   47.812168   32.035126
H   97.170181   13.384243   52.758575
