100
TIME:    7.317, STEP:  7317
H   22.503298   51.016792   92.447098
H   98.399704    1.360205   39.465549
H    5.543361    0.318796   37.450573
H   82.704742   31.190933   39.093090
H   29.632338   59.247158   67.311356
H   14.549956   93.281044    3.372811
H   69.484772   55.417591   62.652081
H   44.784523   21.615726   36.371323
H   73.762047   82.793610   39.507824
H   74.906380   21.446276   94.207893
H   19.645508   60.657932   34.939232
H   76.572449   90.454178   72.097099
H   77.168877   19.097271   97.963600
H   92.787514   82.522835   14.066471
H   69.478279   16.442314   99.029083
H    7.322152   71.757385   25.666212
H   35.717567   65.932144   39.483730
H   57.538403   38.793686   45.880981
H   59.226658   85.310272   48.848827
H   95.386185   50.426548   14.507944
H   30.075562   27.786804   58.644733
H   63.868256   53.797409   96.168167
H   88.049706   35.113533   23.002615
H   39.203110   24.360811   63.650871
H   67.886421    5.884575   90.577614
H   13.107037   10.396938    2.319950
H   31.125479   38.317932   45.149967
H   15.154813   97.972542    8.632672
H   70.271919   12.947657   11.293909
H   81.559753    9.743986   65.069084
H    4.024343   78.184769   30.481255
H   27.756985   50.348667   21.892693
H   85.756721   33.135292   56.970100
H   87.262077    3.163384   63.497635
H   98.855583    5.670447   70.224976
H    8.692181   58.527725   96.422279
H   81.594223   36.571899   85.016388
H   61.565323   25.047199   38.781403
H   36.219616   21.991308   35.240295
H   74.013206   27.190020   13.720437
H   35.185944    7.248634   14.729929
H   83.576973   70.296768   53.504856
H   74.257355    7.380411   29.988400
H   12.129251   35.458092   96.153313
H   21.960602   43.199902   82.245308
H   83.675591    2.477022   12.887369
H   98.898727   22.761688   95.699806
H   56.634212   70.732712   21.312008
H   78.912544   26.456196   52.597229
H   79.361572   42.102856   71.928444
H   42.999172   63.234436   30.557880
H   60.734859   84.775604   93.721130
H   60.650585   64.435181   77.909492
H    7.249527   87.819489   54.695023
H   58.204605   99.831245   62.585384
H    2.709074    4.836949   43.538849
H   60.116543   78.417381   51.895073
H   81.216965   85.886803   25.086607
H   67.351616   47.936619   49.759300
H   76.171638   90.196701   55.497704
H   21.262606   38.297203   43.904602
H   39.223305   59.836472   64.285019
H   70.812706    7.983783   31.721802
H   45.485363   81.621872   28.482677
H   22.746319   76.448273   76.969185
H   51.852509   78.523643   78.821991
H    0.511404    1.331234   20.327124
H   74.930458   36.004997   15.997512
H   21.579781   24.033371    1.322180
H   78.629234   16.159319   86.324356
H   89.684029   97.553055   74.378761
H   70.729530    8.646380   92.379707
H   29.909575   56.382626   74.142883
H   69.129951   86.326355   68.402313
H   14.938684   39.089077   56.081532
H   98.633232   76.524681    3.588753
H   31.322929   92.495186   20.509268
H   75.746292   72.280571   18.529474
H   12.390929   32.026386   99.314400
H   40.692032   10.427587   90.555183
H   54.057243    4.980081   17.309982
H   90.358589   91.922516   74.863426
H   80.692116   29.484167   26.777138
H   53.546589   38.291012   95.122795
H   96.052582   91.199242   38.451210
H   82.890488   77.820908   49.897949
H   55.840672   71.346962   72.446129
H   73.706505   19.559893   19.711998
H    7.531173   86.773720   68.347176
H   19.417395    8.233356   85.781815
H   23.464527   68.527184   87.983444
H   19.682802   45.787415   72.942116
H   54.487263   47.066456   84.839424
H   54.425537   57.086754   20.172831
H   30.086758   94.316788   84.223694
H   98.275757    6.792028   89.516197
H   81.813469   87.587479   16.381393
H   24.153818   48.503803   31.993574
H   60.148033   68.398781   32.161930
H   93.698830   90.868301   92.870132
