100
TIME:    4.802, STEP:  4802
H   92.583168   81.653511   94.749649
H   67.855782   65.078796   80.887695
H   62.296684   19.378994   66.978859
H   82.282608   34.808769   76.949837
H   52.159973   57.658981   35.501816
H   53.558834   96.005730   54.304913
H    1.298285   85.591629   65.975662
H   42.458565    4.036671   67.291115
H   35.585609   24.600784   97.817497
H   43.613670   85.332970   95.729492
H   53.584686   59.461414   77.196060
H   72.563225   64.390099   51.117195
H   37.641495   71.203712   47.871094
H   17.314541   90.274757   22.674166
H   38.911049   41.093140   19.944077
H    8.445518   91.728470   34.433533
H   37.958931   99.586685   10.533354
H    3.755552   61.167187   33.063427
H   20.061172   79.803589   16.350863
H   63.140068    3.840151   43.275093
H   79.319237   78.163361   26.910072
H   22.752762   50.458710   10.343582
H   21.630409   55.567863   94.958542
H   72.883652   94.274094   50.435295
H   57.836823    5.336166   72.003700
H   24.656096   84.697479   38.859867
H   47.997414   42.863995   95.245155
H   27.363304   80.580841   25.500193
H   15.586289   84.767174   30.178349
H   85.123672   71.990105   65.133797
H    5.043121   52.659611   29.459984
H   68.958443   19.838913   54.718849
H    8.603212   17.145147   30.399038
H   80.997162   33.648010   69.450615
H   61.406662   95.925583   17.137100
H   90.067581   61.541950    4.330186
H   40.373276   28.676884   86.844223
H   65.514473   71.076088   61.304043
H   42.379330   76.790276   78.962952
H   10.899069   62.637054   15.845316
H    7.069418   20.952360   55.478741
H    0.044064   27.373747   28.401827
H   52.603275   92.296112   48.326889
H   72.718857   93.244308   50.249855
H   40.117725   42.428368   67.030663
H   16.135326   54.507618    2.668499
H   79.250290   85.986534   71.561394
H   56.495869   44.829010   65.698479
H    5.399619   34.747906   52.921677
H   26.590008    3.820860   47.805336
H   43.178257    6.041096    4.047596
H   38.500038   18.149294   58.820808
H    8.479302   49.852356   23.975927
H   65.485374   28.854912   43.714806
H   58.452698   79.426033   41.190845
H   99.574600    7.482485   29.155396
H    0.678789   50.987114   12.697695
H   68.488663   23.398111   89.866074
H   68.999290   41.665771   42.831093
H   42.135860   96.884979   27.030281
H   62.614563   55.255489   39.993843
H   28.482641   83.245743   78.079681
H    0.067635   79.603073    4.182915
H   72.785194   67.921692   96.763306
H   22.921320   77.316864   42.758717
H    6.351372    3.551435   30.115042
H    2.294619   14.380830   98.902023
H   48.658836   92.168228   95.765968
H   96.232132    4.745224   59.060860
H   27.675180   89.668945   91.621490
H   69.547264   68.671875    4.543381
H   78.019806   92.155762    8.201312
H   93.891510   80.779457   38.625740
H   24.497906   45.499836   17.834938
H   93.695442   35.485699   65.422211
H   39.181023   15.335466   72.814926
H    2.945012   10.340511   75.974434
H   57.587017   36.729305   79.636757
H   91.786873   39.413738   71.261650
H   64.026031   47.427021    7.224666
H    4.839687   78.960556   66.993202
H    1.624373   75.588272   85.236961
H   21.611490   87.425720   87.261963
H   80.519348   23.076674   24.828667
H   18.511591   48.517738   82.252419
H   40.774464   85.440254   75.248611
H   87.869438   54.208405   52.521454
H   33.250290   20.834799   45.804558
H   55.338974   26.804213   88.916634
H   41.777424   11.707176   95.878082
H   20.540337   32.726345   34.871258
H   33.598270   56.635452   25.026281
H   93.271126   71.604774   90.350571
H   11.358811    4.508975   50.592129
H   73.567024   19.595390   26.430584
H   90.547073    6.106325   19.419640
H   81.442345   43.257488   61.021561
H   24.491995   57.123840   79.192970
H   79.956970   57.549831   42.819595
H   37.481373   55.404484   35.148365
