100
TIME:    5.863, STEP:  5863
H   20.831602   84.355247   93.778275
H   38.552650   22.570730   47.786953
H   80.541580   95.712173   54.522915
H   82.460693   91.093964   18.791508
H   42.656693   42.702728    6.735844
H   37.102131   94.856270   59.379642
H   45.689884   57.236622   48.947315
H   59.066055   95.826492   69.873451
H    9.504204   22.589966   31.031561
H   14.621847    0.567406   37.277897
H   54.893051    2.153255   74.995094
H   32.066711   17.572254   75.594460
H   69.936722    7.042850   42.444511
H   64.780113   87.004463    3.416039
H   51.814140   46.320480   68.944824
H   65.785324   98.929482   46.361053
H   52.639565   69.761559    7.120367
H   26.444334    9.544964   96.284218
H   36.585560   24.312975   72.246567
H   34.557373   81.304970   15.512873
H   16.357979   72.537720   98.112617
H   24.471863   51.867203   19.989639
H    7.463350   46.938820   64.603088
H   74.301369    6.966769   71.636780
H   19.889751   21.194305   79.839455
H   19.819460   53.335518   39.087456
H   56.506615   98.758072   16.296713
H   37.838924   30.104713   60.574905
H   38.656471   81.029358   80.025330
H   25.806255   45.730614   49.480026
H   46.802048   47.801739   45.517036
H   35.950535   90.524246   56.496773
H   83.339226   39.516930   25.982298
H   25.827713   36.413689   24.751856
H   35.033844   15.721613   81.743820
H   82.298355   44.644310    0.993143
H   42.136909   89.818970   70.446815
H   21.664730   51.659641   36.176952
H   97.591888   53.671562   76.144157
H   10.964727   63.309826   99.322655
H   34.556610   57.354622   80.475441
H    6.112260   64.594894   79.275291
H   61.742290   98.658615   24.965046
H    4.972253   11.053183   53.988411
H   48.083515    0.569507   57.823223
H    2.444333   74.744583    6.980273
H   87.539352   43.688309   81.744637
H   56.552532   55.756973   31.347113
H   36.410835   46.875603   10.595822
H   48.842579   19.969961   73.597458
H   43.099010    3.608354   15.232570
H   90.063835   19.696526   89.166512
H   30.488338   56.004395   62.356586
H   40.917206   11.540683   90.535057
H   73.974052   72.410919   50.216534
H    0.898109    6.366416   93.036438
H   67.939308   20.372627   13.607641
H   89.484772   23.199770   62.538071
H   52.678299   86.494881   61.378792
H   72.120361   78.438141   96.852928
H   29.543571    5.916033   57.269299
H   90.828590   73.370102   30.071869
H   72.100471    7.202152   31.426941
H   45.641685   73.701370   67.962051
H   65.037430   92.575943   41.565006
H   41.172508   50.805931   92.849648
H   17.169033   51.060169   50.128250
H   75.368187   52.848789   46.487904
H   49.114307   28.508537   92.514984
H   49.167656   43.034348   89.387329
H   35.856758   96.482117   91.817177
H   90.536087   56.943436   85.883469
H   24.713028   28.298363   11.419159
H    1.144382   78.349144   54.793755
H   44.849461   36.999424   45.853531
H   64.266685   83.336479    1.424602
H   99.276939   18.379831   94.738152
H    7.434733   67.354469   38.231659
H   42.664440   36.297245   83.096230
H   11.998138   89.633919   15.818345
H   25.601885   89.937088   30.406309
H   81.246124   82.493210   96.500633
H   88.722389    5.169079   88.305908
H   53.513985   13.868525   27.922695
H   66.849709   82.151207   79.400345
H   16.352489   24.411098   48.927780
H   58.731239   77.064919    3.113915
H   50.322166   35.910282   34.787575
H   77.356796   67.729774   80.239021
H   47.971088   68.057907   33.805809
H   63.960777   90.016830   57.277630
H   12.101526   36.432556   45.238968
H   61.283066    3.437148   72.399368
H   13.904202   68.874580   22.132006
H   55.224236   24.557636   50.811161
H   78.181335   64.208099   64.617340
H   97.225334    4.146340    0.002520
H   26.960382   76.558838   61.179626
H   29.413116   62.123386   53.950218
H    3.385545   28.181145   32.939281
