100
TIME:    7.930, STEP:  7930
H   81.048820   94.802513   91.885880
H   81.469620   34.579250   78.117752
H   16.080370   44.419540   30.253517
H   82.807632    5.933773    5.491671
H   24.139414    8.381719   50.689941
H    5.043153   92.616936   64.081490
H   37.358906   96.808411   10.589497
H   96.603928   74.647118   80.087791
H   58.693336   23.856014    0.921192
H   58.163368   30.248049   18.210945
H   62.625748   85.323471   75.891235
H   53.176834   21.180279   28.462570
H   38.080025   81.993301   37.045429
H   62.434959   80.633400   60.717739
H   76.923775   61.686142   69.546417
H   82.674744   18.142334   74.781525
H   86.423531    6.479518   95.287537
H   70.645157    8.965212   24.633381
H   68.774384   11.025250   81.144745
H   78.867661   37.410961   56.243874
H   93.699287   66.761597   42.009289
H   22.637163   54.611176   43.965515
H   79.865273   30.128923    5.462909
H   82.246887   31.694063   18.122753
H   45.961494   57.272499   95.104774
H   10.216763   92.327072   44.634361
H   78.266678   12.835561   57.314373
H   63.430283   26.585287   28.895414
H   83.600853   68.563644   82.317101
H    5.065146   94.571640   13.800953
H   28.150293   33.154366   81.982719
H   66.462334   33.413906   65.144249
H   28.935106   88.286171   12.193982
H   13.162902   46.985481   37.672241
H   83.599800   59.257744    7.518719
H   61.978992    6.540288   94.495430
H   40.389172   14.121305   33.318203
H   36.230995   13.827738   82.039253
H   10.343034    8.636652   75.836540
H   16.276432   69.804016   61.951584
H   93.292679   28.280310   29.171843
H   31.916832   72.700653   84.800560
H   79.532806   11.057560   74.264931
H   72.985458   45.747093   56.088047
H   68.786140   19.016071   34.701935
H   75.762413   14.166968   15.377775
H    3.690036   56.098701    1.584260
H   56.671627   77.046417   59.241009
H   96.834114   75.687019   28.142513
H   92.232178   51.433109   29.066422
H   42.957081    4.052866   37.020721
H   90.526199   27.893332   53.481781
H   73.363411   67.989563   42.309547
H   93.053101   77.820450   81.745743
H    9.396240   53.552803   67.796631
H    3.472564    4.192133   22.670883
H   98.980438   60.729652   10.196485
H   35.571213   27.996977    9.295825
H   15.696373   73.839745    2.699692
H   35.720428   37.314594   38.062523
H   59.931194    9.790424   96.111427
H   17.466743   54.130753   36.546852
H   12.427829   66.154083   89.686554
H   87.578789   84.961121   11.838172
H   47.078918   27.488058   34.055740
H   14.195869   48.049492   15.067815
H   51.329956   22.523609   49.922955
H   32.586540   71.062431   45.302460
H   52.133438   79.987114   62.878464
H   91.078926   46.946819   85.024200
H   70.219109   55.845184   67.026802
H   20.251457   88.292381   37.312031
H   89.939926   26.062349   58.426983
H   55.635555   47.529453   31.979250
H   44.466766   39.991703    2.559706
H   13.125440   15.811016   62.339676
H   86.995811   39.439186   31.380533
H    4.545684   32.199429   52.384968
H   41.784882   30.225811    6.155104
H   10.630895   77.034599   37.744545
H   66.057961   11.321847   53.948181
H   36.357407   95.897812   23.580734
H   19.464403   39.735752   85.156174
H   95.720985   90.746216   39.133999
H   66.205124   52.850689   79.028496
H   68.785202    0.335149   92.466354
H   96.781548   26.776878    1.676266
H   83.565239   70.508484   13.356201
H   20.254436   52.642296   63.333626
H   65.221252   83.014420    7.696352
H   48.550983    1.629528    0.928913
H   65.038597   91.891495   84.624809
H   93.781891   65.460014   32.243652
H   13.670107   94.276817   61.506496
H   19.486748   39.408836   98.310272
H   48.907089   82.585266   57.854134
H   33.155846   22.765530   81.126976
H   22.970583   78.835258   19.686525
H   30.945976   71.045860   80.816902
H   31.774050   75.135483   33.818226
