200
TIME:    0.772, STEP:   772
H   25.818327   60.709400   24.436447
H   32.705872   40.644753   11.494613
H    6.987437   92.423706   71.552055
H   35.775253   83.191902   30.588028
H    9.561763   97.212708   46.009621
H   72.311707   38.375679   49.802971
H   11.066955   54.926659   59.948635
H   14.810449   11.858382    6.188827
H    9.033152   79.530609   34.741283
H   92.133804   67.446709   75.088264
H   30.736582    5.958630    9.773369
H   32.977692   56.222687   38.091042
H   24.231457    4.664295   39.487602
H   79.258827   55.451473   67.901421
H   93.937027   76.039955   41.669617
H   13.793671    4.046612   42.846642
H    9.233476   32.634663   89.602211
H   23.929695    8.742291   34.049068
H   82.726013   10.441862   50.315361
H   91.748787   72.398766   16.847767
H   64.469627    3.315133    1.467442
H   78.185341   69.149147   50.073502
H   79.074272   58.673386   36.371162
H   19.876579   92.909492   89.917900
H   26.369888   34.100212   26.427166
H   18.220709   85.946396   89.385841
H    9.198287   69.471504   70.471939
H    6.719857   92.075569    2.131115
H   33.475407   40.359322   35.223206
H   69.008926   35.016155   80.223129
H   12.666924   73.675453   16.845242
H   22.251812   75.975082    6.701347
H   14.268959   20.432787   79.677353
H   78.819313   64.158333   47.589096
H   22.457968   67.818344   30.171968
H   15.683332   37.792114   85.576912
H    1.533755   62.946548   89.948830
H    6.600242   58.516804   91.248047
H   33.380829   27.350708   56.257057
H   84.980789   37.500774   42.915131
H   80.662605   80.371719   19.182579
H   39.819168   31.951166   24.055954
H   67.123001   75.560768   70.082649
H   36.096085   89.072456   37.774845
H   46.954330   92.526443   63.562218
H   33.573265   99.993263   48.473751
H   89.999481    0.148121    7.842906
H   77.164070   65.542488   28.522415
H    7.654711    8.563690   61.549892
H   43.079418   20.202307   83.205841
H   65.552780   63.762505    6.785306
H    0.801686   44.854717   74.979530
H   66.525841   79.208183   14.880426
H   14.488718   93.410446   89.581367
H   54.680466   64.553421   73.567940
H   98.486015   59.243332   96.068756
H    3.912232   18.758644   43.947865
H   73.220932   70.946671   95.700920
H   16.955431   84.754440   19.993351
H   30.798923   93.001869   57.159668
H   48.696541    4.996943   26.692837
H   99.498161   17.685152   53.144661
H   86.103775   36.226837   66.936737
H   37.016289   65.911339   15.545601
H   79.900345   84.010040   39.684315
H   17.870497   37.229485   42.425919
H   66.303078   11.940131   96.826454
H   94.362236   92.659462   97.804237
H   35.445618   13.042464   55.246193
H   42.174572   50.902401   50.954182
H   58.231781   85.793518   87.511627
H   17.188755    9.838346   41.040844
H   94.378555   34.860424   81.681519
H   25.197378   97.271019   76.060707
H   85.622940    9.483420   42.598099
H   66.760689    0.294652   59.401077
H   93.178986   49.755295   64.620491
H    6.850819   15.657370   29.775826
H   15.576410   53.393700   23.151228
H   60.258938   87.699936   69.031891
H   65.947411   21.110708   93.235382
H   50.029339   59.022511   71.410820
H    8.924125   19.501894   74.714073
H    7.325589   79.255775   11.190465
H   19.963593    4.949540   42.705643
H   39.654968   67.160492   16.708282
H   59.698860    3.892679    2.990993
H   70.907356   98.743988   31.508068
H   81.969437   73.352066   79.086670
H   20.779503    9.893457   49.012661
H   18.942131   39.485371   78.388184
H   80.349709   93.203125    9.975956
H   72.532730   10.862122   80.578186
H   36.172047   75.320580   83.712425
H   38.604820   49.729881   90.096977
H   47.240700   39.603722    4.048255
H   86.522209   95.877892   21.241081
H   92.270226   36.704971   53.630589
H   24.963158   64.448776   54.766579
H   76.454521    6.571734   27.380289
H   33.602200   95.135620   93.990944
H   10.354291   84.705246   62.930061
H   34.207260   17.727373   37.936810
H   47.438866   68.921722   11.289180
H   24.633516   20.481384   42.335567
H    8.484911    0.726302   18.983179
H   90.859627   36.702541   53.783340
H   61.616230   54.700478   98.170174
H   86.316551   33.374306   24.857502
H   21.456469   20.642862    8.141008
H   54.194008   91.443764    1.170152
H    7.355121   76.723328   96.571007
H   47.854095   86.448151   82.363625
H   61.422050    7.928087   61.235519
H   46.096901    4.121589    8.119040
H   92.327461   90.234993    2.934377
H   10.701739   15.933803   90.382004
H   38.071987   53.182072   23.344353
H   39.065865   77.687149   57.247028
H   84.822151   57.292782   69.188980
H   46.107063   25.294682   70.087120
H   95.334839   14.877338   63.837013
H   45.062325   99.384964   39.811428
H   96.239380   48.174965   94.567986
H   60.997612   95.780357   75.218071
H   67.212883   76.907654   15.259444
H   82.162941   51.673935   50.508926
H   63.791985   91.742455   39.495708
H   99.014626   33.226513   72.766518
H   93.530991   21.627792   75.564995
H   70.084267   66.190338   23.742062
H   61.279991   91.327866   21.872852
H   90.700569    8.477610    1.332960
H   74.834412   26.642864   56.254589
H   30.707249   91.750702   31.970505
H   48.188675    0.944078   75.843987
H   69.773483   87.920174   81.822578
H   95.756126   47.610157   74.792519
H   60.218811   51.773483   71.424263
H   43.736122   83.575523   80.675201
H   76.955460   47.423874   32.095032
H   32.747269   57.175148   58.648670
H   37.903587   66.552406   81.440125
H   33.335701    7.270161   86.940224
H   65.308441   52.123306   66.464722
H   65.432854   71.141037    4.366777
H   57.313652   94.448021   43.472675
H   28.125862   53.615623   65.772728
H   79.407440   42.580360   92.655792
H   26.420624   94.482994   70.088333
H   57.469101   70.344925   47.327976
H   56.182007   92.388878   31.480652
H    0.890028   11.946224   84.789536
H   23.972969   13.354124   62.805759
H   34.708347   67.929276   70.377403
H   79.295036   44.848026   70.429016
H   64.879990   76.838486   87.055099
H   53.609711   28.124161   22.187809
H   88.033012   99.729721   82.875099
H   57.715214   35.237152   98.657028
H   59.181702   62.796074   69.270836
H   18.625475   20.299335   30.935165
H   88.119316   11.374813   37.010845
H   30.802641   35.808216   48.438217
H   53.860344   40.140045   15.051821
H   21.079567   47.511913   59.393665
H   65.739037   88.962227   57.861454
H   24.096951   55.137444   70.011612
H    1.302018   26.440130   35.600723
H   50.750893    6.445016   84.412506
H   69.201660   11.960532   35.931427
H   27.784288   45.686806   59.091797
H   47.951950   54.594028   75.455032
H   64.674973   61.813545   86.582199
H   46.711426   91.034531   74.216805
H   17.331291   50.536064   23.801559
H   29.952518   69.540741    9.161758
H    6.445042    9.708214   71.682816
H   61.996044    9.011998   62.912998
H   60.993919   60.161827   93.889793
H   71.705017    4.254033   29.350208
H   29.958220   30.755459   89.037704
H   41.139492   89.605774   16.606918
H   63.066589   26.204754   96.762001
H   92.402695   65.259888   76.205063
H   10.397587   40.712845   86.616798
H   49.876526   95.412148   11.053007
H   64.862549   89.759224   44.142052
H   91.211464   63.545795   72.623550
H   59.287811   55.379360   72.424454
H   73.233948   13.423195   75.502388
H   43.291695   99.386780   17.848158
H   15.917354   30.180496   69.993874
H   25.809504   84.762909   44.034702
H   66.637955   30.492935   20.076057
H   76.626968   11.688869   22.277714
H   12.997542    0.065702   21.423079
H   13.448278   86.832909   31.963219
H    4.818969   13.100473   54.224159
H    2.459016   16.968624   90.357651
