100
TIME:    6.393, STEP:  6393
H   84.990067   35.751427   93.293045
H   23.916012   51.292271   81.205055
H   89.655807   33.841454   48.299847
H   82.549652   69.258636   89.740601
H   37.909531   85.184570   92.365494
H   28.881535   94.282082   11.866127
H   17.913513   93.023064   90.394005
H   17.409103   41.677296   21.209461
H   96.475731   71.632477   97.669670
H    0.143825    8.177963   58.029545
H    5.593735   23.478552   23.943718
H   11.836685   44.138569   37.867867
H   36.116226   74.992989   89.780937
H   38.537285   85.370857   43.750736
H   58.255379   98.978569   43.462772
H   44.475662   52.573891    2.365800
H   10.020099    4.818956   55.368355
H   37.778484   83.755783   77.910194
H   44.838505   46.548615    0.171503
H   20.279495   70.047646   51.597771
H   84.907043   19.773708   83.725563
H   75.283478   52.570786   74.855286
H    0.386475   42.628365   49.439667
H   25.055748   13.307100   32.273319
H    0.934704   79.163300   83.753639
H   17.403421   37.666649   89.248253
H   10.802979   76.728653   26.814062
H   93.119278   54.843330   78.092484
H   50.180672   29.114697   54.971313
H   46.128666   32.613243   91.614120
H   67.662163   95.328590    3.585172
H   69.415192   75.878403    7.431990
H   20.671097    0.740546   73.728882
H   48.221611   87.842484    2.425125
H   21.852188   75.630257   14.005572
H   28.369921   86.155693   99.326698
H   92.971046   70.409790   12.208625
H   99.759392   41.959095   73.577049
H   75.222809   42.123100   24.782900
H   61.043407   13.691767   41.022472
H   98.335907   75.541161   92.962013
H   61.446762   66.673294    6.334360
H   66.305450    1.837529   63.245979
H   71.127991   19.949057    5.809842
H    2.110748   79.656204    3.176151
H   95.603447   84.853531    9.133478
H   91.679977   72.510941   86.831459
H   56.580837   61.215805   64.140533
H   51.901787    2.982499   89.454514
H   59.962650   28.037989   36.533188
H   43.062618   52.440781   20.818913
H   15.822289   70.517487   54.375557
H   41.482830   59.077515   31.572847
H   28.644943    2.892478   13.921927
H   31.775249   18.856636   54.725124
H    1.558233    5.808908   74.993988
H    1.541309    5.079089   64.014946
H   50.019440   73.147484   48.886948
H   94.479721    8.889424   20.692299
H   37.146507   19.174976   81.778465
H   62.976032   81.267105   15.947962
H   72.017860   68.436935    6.089779
H    8.080778   71.036171   95.083252
H   82.035934   76.588486   53.572063
H   86.072128   50.246441   90.920937
H    8.615063   24.457970   24.187895
H   74.646011   69.382812   75.716019
H   38.757622   83.159462   71.824966
H   75.529243   90.426132   59.276188
H   59.903358   69.692802   88.271301
H   19.025822   60.421478   85.460670
H   46.834675   39.353867   24.686966
H   90.155243    2.083839   97.829407
H   89.474983   44.805927   23.302919
H   70.401848   37.755573   86.030533
H   76.793694   17.303688   65.760345
H   47.403896   72.470970    4.122356
H   32.335094   32.697342   67.502647
H   68.078987   34.740467   89.007942
H   86.006607   60.762764   70.158531
H   35.973663   95.420181   62.083607
H   21.022924   85.930389   52.165531
H   22.246223   14.031754   38.780663
H   89.977821   59.222069   79.515038
H   41.043587   49.000114   28.022629
H    4.153171   43.880142   85.732437
H   94.128731   38.529610   28.386374
H   58.846031   93.499329   29.292351
H   88.355331   38.219734   75.904305
H    1.111078   46.251637   52.749977
H   85.650536   18.635860   68.470261
H   51.316158   76.294159   55.335785
H   95.257217   19.340534   13.385081
H   65.124977    1.029097   57.869156
H   46.061485   77.084000   62.990421
H   21.957214   43.278534   37.242310
H   55.155937   34.560684   69.522018
H   25.937357    2.785242   50.540970
H    4.165406   64.408730    9.555763
H   36.304707   14.580566   81.882698
