100
TIME:    9.301, STEP:  9301
H   88.333649   69.075600   90.630692
H   43.604782    8.870670   64.564262
H   39.646526   43.054726   14.160662
H   83.037750   49.449760   30.342669
H   11.854261   18.273148   13.517883
H   83.786743   91.131630   99.854706
H   65.502937   89.385719   17.803493
H   88.846039   93.257034   54.207550
H   24.991539   92.038635   14.622023
H   20.715349   49.933582   71.892494
H   35.098663   40.486862   43.828285
H    0.845962   89.901817   30.873192
H   50.655792   99.012032    0.800159
H   94.552063   76.407600   65.051506
H   93.575935   39.221657    3.616704
H   27.550648   98.229355   60.976624
H   76.175880   97.160469   20.095076
H   99.963120   42.252174   77.107010
H   90.133499   68.543411   53.373196
H   41.929546    8.296801   49.587914
H   12.342068   30.273451    4.798946
H   54.076275   56.431198   27.212189
H   61.560448   18.983900   66.237915
H   54.861507   48.095184   16.300745
H   96.928085   48.545296    5.227451
H    3.750698   51.910019   15.616110
H   60.044273   55.846905   84.512680
H   47.749916   90.578949   74.215446
H   13.412475   92.951744   17.508732
H   57.634468   60.639725   22.791222
H   82.109032   56.093723   73.513580
H   53.028095   95.536545   38.223900
H   25.506859   87.977310   35.704491
H   71.091400   21.341431   79.915428
H   49.479607   55.453773   90.932785
H   81.157684   13.926679   90.185951
H   71.885254   63.912361   41.347675
H   79.563698   88.740471   78.786522
H   52.475231   78.764671   42.976135
H   87.143097   41.454971   69.818924
H   99.594574   75.320999   61.472012
H   16.376419   78.077042   54.792294
H   91.331573   19.282700   73.292931
H   85.447792   68.766335   90.136543
H   49.862556   64.934669   52.025013
H   58.067772   40.313152   20.947672
H   14.408534   30.659048   14.750555
H   56.755306   91.167282   44.070332
H   36.907066   62.140347   73.454742
H   21.011633   72.304771   33.206623
H   43.070805   71.708473   51.158081
H   57.157803    0.674839   63.483315
H    1.793891   75.939087   62.686623
H   61.297737   55.453186   42.243050
H    0.234937   73.700638   79.448959
H    5.180143    2.749974   75.998795
H   85.894958   21.170311   40.590019
H   33.483826   98.522057   73.982445
H   23.828945   31.769712   97.447273
H   45.248135   42.694431   99.068031
H   46.416851   46.031025   89.219612
H   68.807243   41.369675   74.515541
H    5.505080   72.599388   95.672974
H   81.723328   92.429489   74.619080
H    1.494719   17.987545   61.730335
H   29.973736   79.893394   96.132072
H   41.332199   69.919769   16.114357
H   37.882172   49.471870   10.844193
H   20.461962   81.475800   76.890900
H   18.923462   15.810404   82.116348
H   26.676678   62.559612   50.583839
H    7.352895   42.770897   37.805370
H    0.549278   58.243404   23.271259
H   25.458744   60.758427   50.519478
H   10.509751   42.010464    6.509719
H   45.540436    3.679192   70.088974
H   11.511874   20.774876   55.699669
H   68.949928   42.558083   28.109291
H    7.531271   26.198750   21.456255
H   43.395195    2.349216   19.631645
H   92.898064   25.505472   35.891518
H   39.235512    4.793654    8.882597
H    6.182042   62.663853   15.722867
H   90.043037    8.065714   13.915236
H   99.450043   67.085495   46.125961
H   37.229267   50.696281   87.672775
H   88.347603   27.093697   67.050743
H    5.614285   60.800758   99.141769
H   48.707523   76.307625   52.120613
H   44.005733   26.607704   56.703140
H    4.658062   75.656372   29.882225
H   66.478714   95.003891   10.749642
H   81.665604    6.589964   38.265190
H   45.962563   77.437180   54.267910
H   95.780731   16.602299   29.811865
H   62.146057   28.445169   87.040024
H   24.332577    1.444235    2.278734
H   20.324228   46.673313   92.159813
H   65.634850   76.966164   65.982307
H   16.933014   39.955532    1.744484
