100
TIME:    6.390, STEP:  6390
H   85.192947   36.026543   93.295792
H   23.998856   51.129696   81.015907
H   89.604218   33.625618   48.335072
H   82.549149   69.382233   89.905029
H   37.936401   84.944107   92.446838
H   28.928066   94.285332   11.569027
H   18.070744   92.820503   90.159401
H   17.644897   41.417767   21.484921
H   96.549477   71.920914   97.858498
H    0.225776    8.134882   57.912083
H    5.872787   23.357840   24.232693
H   11.951195   43.988194   38.081413
H   36.307663   75.174400   90.079033
H   38.685829   85.380104   43.522427
H   58.218941   99.246544   43.607037
H   44.596283   52.836281    2.614832
H   10.261346    4.620533   55.095253
H   37.714329   83.901764   78.014198
H   44.791790   46.422752    0.013458
H   20.360313   70.111366   51.393517
H   85.085068   20.072376   83.806999
H   74.995865   52.566803   75.110764
H    0.426533   42.652763   49.525497
H   25.334492   13.271212   32.496136
H    1.041998   79.401199   83.731483
H   17.417097   37.755341   89.530373
H   11.061672   76.853348   26.754530
H   93.372421   54.703300   77.993332
H   50.115440   28.842522   55.113129
H   46.013630   32.687492   91.375626
H   67.544106   95.059563    3.822521
H   69.225769   75.961304    7.709713
H   20.459782    0.960034   73.458618
H   48.094856   88.117416    2.551504
H   21.926849   75.857399   13.823045
H   28.109144   85.920723   99.336128
H   92.683296   70.519653   11.972241
H   99.883400   42.014004   73.365334
H   75.349426   42.188469   25.073614
H   61.325962   13.972622   40.786427
H   98.540939   75.438210   92.891335
H   61.699585   66.661530    6.181207
H   66.279633    1.819532   63.029297
H   71.319565   19.898703    5.516521
H    2.370975   79.774582    2.919425
H   95.642174   84.796310    9.121290
H   91.656540   72.347794   86.802666
H   56.580677   61.184906   63.954914
H   51.814102    3.230952   89.574173
H   59.899685   27.992315   36.742958
H   43.062824   52.730408   20.787292
H   15.676462   70.795853   54.572487
H   41.420597   59.060120   31.747084
H   28.714409    2.941430   13.789554
H   32.014122   18.593731   54.699604
H    1.554497    5.812063   75.096115
H    1.351126    5.165658   63.729622
H   50.242828   73.430794   48.964218
H   94.243103    8.762652   20.922600
H   37.344467   18.944378   81.863792
H   62.786793   81.406631   16.181858
H   72.124336   68.464859    6.225526
H    7.877106   71.240883   95.288971
H   81.829941   76.572144   53.653522
H   85.953064   50.486057   90.641563
H    8.799347   24.607109   24.010511
H   74.886703   69.279083   75.571182
H   38.964851   82.987892   71.681549
H   75.379738   90.641693   59.464352
H   59.842590   69.541924   88.277618
H   19.121094   60.625595   85.496651
H   47.082027   39.453430   24.467319
H   90.350845    2.232224   97.906311
H   89.541039   44.995785   23.481161
H   70.257195   37.751293   85.803116
H   76.722786   17.111416   65.962219
H   47.131435   72.730614    4.069149
H   32.194149   32.893517   67.336983
H   67.935112   34.749279   88.974480
H   86.153732   60.926186   70.416985
H   35.914955   95.389145   61.904301
H   20.797808   85.910934   52.416500
H   22.056458   13.981589   38.494949
H   89.771416   58.965355   79.789055
H   41.189659   49.187775   28.313446
H    4.222222   43.769936   85.524109
H   93.928368   38.747734   28.243322
H   58.797783   93.739380   29.323456
H   88.293076   38.386772   75.928841
H    1.376322   46.375072   52.642746
H   85.527763   18.473869   68.406906
H   51.094189   76.068527   55.278633
H   95.064911   19.250515   13.153087
H   64.835030    0.847095   57.666870
H   46.113350   77.352707   62.921482
H   21.709427   43.397003   37.397263
H   55.394066   34.388519   69.694550
H   25.943148    2.636802   50.601189
H    4.308317   64.395775    9.807053
H   36.118374   14.657551   82.171684
