100
TIME:    8.518, STEP:  8518
H   41.284172   40.879784   91.347549
H   65.229996   66.443558   15.191756
H   26.187517   86.723312   23.351677
H   82.906326   81.708366   73.263130
H   18.870508   55.512516   34.746399
H   95.925537   91.979912   22.311737
H    6.542459   36.514343   56.571857
H   50.388290   25.517351   26.099106
H   44.239174   67.321686   63.910923
H   42.103188   38.690861   41.234871
H    7.931412    8.982806   19.252981
H   30.732956   50.653851   86.608833
H    0.584959   46.402931   78.611374
H   33.320274   78.821022    5.462796
H   84.065620    9.163071   41.269753
H   59.033081   66.713524   25.972652
H   39.140205   45.369633   48.815498
H   83.215164   80.353172    4.251401
H   77.934967   35.694225   12.123996
H   63.023090   24.924917   96.277687
H   58.806526    8.222897   26.051451
H   79.009300   55.391754   93.891922
H   72.014626   25.349001   88.639725
H   27.612547   38.728241   74.453964
H   24.931488   10.639656   99.447304
H    7.444035   74.992844   89.300415
H   27.561926   88.393753   68.980759
H   13.817907   54.031147   48.333260
H   96.386192   21.911554   54.521324
H   27.610504   80.018784   60.545074
H   51.293629   85.881172   35.462029
H    3.589104   17.169796   10.710106
H   70.354263   45.264626   65.165665
H   38.008408   93.098907   12.901815
H   68.966194   14.737846   43.294979
H   13.092859   52.597672   92.647163
H   96.786339   92.586678   79.650475
H   11.928213    3.066720   23.533096
H   85.524467   95.825890   18.854820
H   60.892174   14.756431    8.212678
H   53.106339   48.454231   43.024868
H   82.363190   75.006500   14.820207
H   84.593109   14.584743   16.737835
H   35.440830   55.620132   13.580050
H   17.782730   95.819298   85.019218
H   68.171959   25.379936   17.766615
H    8.286866   88.075508    7.231091
H   56.707516   83.102631   95.623146
H   14.021378   26.989502    4.686481
H    4.576628   60.382847   87.954033
H   42.916706   47.285805   43.220490
H   19.103582   73.332367   14.882552
H   85.556587   71.398987    8.159910
H   79.433350   68.229202    7.692599
H   62.579109    5.081197   72.794128
H    4.204918    3.573614    2.653976
H   36.255890   43.763283   66.120125
H   91.788269   72.467171   94.150047
H   62.072720   98.683678   57.559937
H   96.919472   82.510056   21.338402
H   97.022141   82.444458   50.264996
H   96.597435   48.657730    9.941494
H   52.348392   26.030214   49.365631
H   27.955208   88.164185   95.873917
H   70.418777   80.525848   88.812881
H   78.074776   18.818169   49.834995
H    4.153017   42.851101   78.310898
H   91.969101    4.690383   73.412262
H   81.438354   37.737175   25.998367
H    3.020952   76.480606   83.777069
H   51.545033   15.835513   59.974678
H   71.829956   68.768944   80.411545
H   51.601852   96.976738   43.349255
H   42.693203   10.316078   97.043556
H   72.791901   40.857517   47.142078
H   27.027582   53.497643   22.776377
H   40.399246   88.545654   41.810547
H   32.168339   93.753685   84.862610
H   69.980873   28.498669   12.717123
H   81.794884   45.003960   87.087975
H   77.569252   17.404978   89.092163
H   80.479721   99.710983   74.387489
H   56.657768   49.569248   41.154690
H   36.174248   41.063210   85.429619
H   37.574936   16.069286   22.028706
H   55.252270   21.933403   33.299103
H   36.052814   84.024162   29.714394
H   93.021904   23.454975    7.259545
H   32.458744   19.903685   58.524544
H   13.232879   58.824493   28.715464
H   72.614342   33.378033   13.346702
H    8.544641   36.114014   95.831047
H   31.473606   83.099297   77.714600
H   70.496567   29.950062    1.154464
H    9.319038   86.738937   11.821371
H   97.473434   59.365295   27.483345
H   86.483788   56.509239   47.310875
H   21.835604    7.931265    7.881395
H    2.935290   73.584984   31.565716
H   68.295792   60.045475   77.174545
