100
TIME:    5.527, STEP:  5527
H   43.553627   15.167836   94.085892
H   47.832436    4.362701   26.600147
H   74.763504   71.538589   58.468105
H   82.404297    4.937183   37.209167
H   45.666214   15.770845   15.845798
H   42.313679   95.220284   26.103380
H   63.298405   34.547291   22.671679
H   85.474991   66.756668    0.722375
H   17.763725   54.894897   52.182747
H   23.801661   95.742897   24.120718
H   86.146957   88.633545    7.361240
H   44.891785    0.730788   99.511696
H   91.377640   27.362247   75.831230
H   81.417076   88.040108   77.847603
H   47.727959   76.333664   85.094727
H   79.294846   28.317520   74.251678
H   79.658607   47.538113   76.532959
H   19.258909   25.893536    7.931799
H   31.353344   10.216418   54.544567
H   43.609009   88.441689   92.636513
H   36.296700    5.986386    7.232433
H   92.259216   51.421158   48.603165
H   11.950036   49.671486   74.216125
H    5.519630    2.947237   96.589661
H   31.906048   47.841644   77.358009
H   21.351137   63.268990   70.682846
H   85.479691   12.725500    9.629723
H   66.188606   14.421364   49.467361
H   31.350563   50.544498   95.908630
H   12.923351   54.046532   22.769043
H   33.577072   17.672588   72.100288
H   14.735241   99.809158   87.601997
H   59.672741   64.100670   95.712761
H   11.630095   67.206169   38.906715
H   43.385651   41.121353   61.282494
H   53.090107   18.326992    2.049852
H    9.910569    2.123850   43.971233
H   35.551083   57.809422   12.467262
H   11.774777   60.992851    8.705156
H   42.611698   94.763741   72.888084
H   57.520233   45.826668   72.559425
H   34.885216   59.914055   62.458111
H   58.848125   96.643723    0.695642
H   26.426273    5.413387   21.137033
H   77.228844   13.825852   29.071138
H    6.780190   68.335892    5.615222
H   84.914352   25.415386   78.519783
H   56.534588   52.296280   10.557319
H   26.590157   74.703125   23.999218
H   41.795582   14.855825   97.099411
H   43.122944   36.047668   11.690486
H   73.734489   50.875584   11.223877
H   23.518246   54.056152   81.869987
H   48.697357   17.023438   75.707909
H    0.726524   42.964993   47.358257
H    0.479582    6.719855    4.474686
H   46.638908   30.067696   81.651085
H   14.503924   54.930840   71.192368
H   26.179640   72.298347   87.172493
H   94.294434   52.612545    6.409554
H    8.347696   21.541290   83.467369
H    2.753624   76.497543   45.275848
H   49.289005   30.130922   54.467468
H   22.568356   71.871048   77.082901
H   51.699860   19.411442   10.274322
H   61.813622   67.509544   72.982704
H   44.127258   39.445057   33.906570
H   98.577904   33.632969   30.425161
H   32.367115   52.651360   13.588025
H   42.361626   26.133793   90.094849
H   46.525948   19.343643   95.846962
H   18.240993   68.094559   61.284065
H   46.620926   44.917381   20.035004
H    8.540073   99.615746   74.758110
H   28.650587   36.520054   20.382244
H   56.322556   61.803017   24.032846
H   68.771568   47.502888   88.796013
H   91.648834   89.323463   19.674654
H   26.552990   37.284184   79.348427
H   28.473770    7.936868   44.765198
H   19.026567   86.461014   10.325135
H   56.027451   80.314255   24.607435
H   67.471169   99.550354   56.307980
H   30.399027   85.116257   58.610073
H   83.209816    3.166905   11.971661
H   24.086498   12.069240   25.595016
H   36.290565    1.494873   87.092148
H   44.918358   62.798588   38.271339
H   70.384140   86.438026   82.987068
H   77.678040   81.880173   21.794832
H   50.210289   71.872543   50.181927
H   87.240929   11.162740   38.837967
H   39.744736   93.356728   46.415974
H   81.430824   48.489819   99.476341
H   61.033073   54.655415   43.089970
H   50.429138   77.476654   81.972076
H   23.894976   84.864006   19.326538
H   27.152555   63.296783   67.588280
H   45.419464   60.675022   82.092979
H   82.514053   36.802685   65.308197
