100
TIME:    2.304, STEP:  2304
H   61.512115   10.732760   97.036636
H   37.180336   29.663565   23.335531
H   19.358496   39.662582   96.290413
H   81.863327   37.726158   13.872622
H   74.534332   57.433277    3.234526
H   92.290291   98.711998    6.918261
H   32.218197   16.914108   70.628654
H   38.796440   87.927368   96.647804
H   96.991219   64.773178   55.059391
H   11.878580   49.465385   97.910362
H   85.942566   58.948933   17.816877
H   67.905243   39.178146   28.927359
H   96.705437   22.312370   96.130424
H   41.000694   97.974281   32.575626
H    8.524872   64.224640   40.021263
H    8.885303   10.212893   41.789810
H   38.829285   34.364204   83.126923
H   50.380112   82.657021   19.669830
H   81.149651   75.009995   84.746155
H   30.444855   56.884258   73.199684
H   27.554001   26.846821   94.709534
H   83.267075   47.142578   23.071365
H   54.982307   75.883934   66.430099
H    4.974967   64.314575   35.959091
H   47.179192    3.446449   53.561142
H   36.094532   58.954952   73.217384
H   63.403397   46.703320   45.686726
H   38.137123   63.982647   42.930126
H   61.269058   58.128792   48.260521
H   89.339455   33.816208   66.549980
H    6.735372   28.657934   27.096584
H   11.233091   88.855614   85.971260
H   32.647938   99.911201    5.359471
H   75.450523   62.574905   74.687393
H   23.500992   84.755310   65.024467
H   72.878250   65.476738   12.719590
H    0.783012   20.158777   90.011597
H   68.760857   16.784328   85.028328
H   47.821411   31.215105   21.037397
H   46.182117   96.490089   19.307718
H   77.787682   35.239323   96.625778
H   24.550812   15.261735   11.045464
H   31.086538   77.316345   67.892662
H   32.232613   51.386681    6.007259
H   56.799854   40.986156   53.270729
H   48.362789    6.862049   92.525368
H   59.730503   50.137360   47.573097
H   56.362461   19.105181   11.136345
H   32.377991   41.631725   52.567924
H   74.208336   65.816841   22.520115
H   43.368839   47.207420   77.709854
H   17.102812   49.945560   22.808308
H   56.673737   35.368103   69.058220
H   23.338467   69.617836   33.484772
H   57.339783   60.486904   19.956373
H   96.449051   10.110556   14.193207
H   42.314816   23.066322   75.116982
H   54.496185   59.303299   54.210281
H   71.987679   36.118969   34.603706
H    6.979372    4.880179   98.079353
H    5.038381   71.423897   34.757679
H   17.139294    6.498098   91.105225
H   30.511280   50.038002   75.494797
H    1.250386   54.327682   64.590462
H   23.771095   76.827942   10.127854
H   59.806862   27.734261   82.415810
H    2.713869   28.018606   78.299149
H   21.212914   49.305725   76.347122
H   71.734489   84.235588   15.728883
H   77.061829   64.029366   96.881561
H   48.870491   38.635872   34.512966
H   83.991638   75.059753   25.309401
H   56.766693    4.342464    2.669691
H   79.486504    3.577189   66.274986
H   73.255516   31.922018   76.056625
H   80.127037   55.238449   40.899494
H   76.143768   26.851187   31.797415
H   40.226437    0.067197   41.681835
H   71.996521   46.751156   43.384430
H   86.532784   83.473724   22.429420
H   55.969631   53.117596   17.693527
H   14.194489   59.274429   94.118019
H   63.577114   45.713623   49.344456
H    8.663918    9.317842   52.984894
H   40.144257    4.766800   24.405365
H   98.261780   93.683937    1.779889
H   21.033682   35.833359   33.407013
H   93.045013   20.830536   71.786629
H    3.496282   65.889122    9.350115
H   62.634907   14.481522    6.581234
H   18.311829   97.841568   82.117996
H   48.762180   68.785454   77.423149
H   33.112492   96.669540   97.158585
H   69.918861   52.988232   82.165077
H   16.756252   43.351753   69.030266
H   84.222519    4.749397   48.444427
H   79.721817   99.902534    4.684189
H   15.324637   35.854858   19.170677
H   98.956383   46.781933   52.054512
H   82.327499   19.522999   75.777496
