100
TIME:    2.694, STEP:  2694
H   35.137604   74.967827   96.679581
H   26.331795   50.810020   47.936665
H   26.062216   67.721207   91.714149
H   81.928787   21.657694   92.495544
H   71.041138   88.693497   92.659958
H   86.244148   98.289482   45.541965
H   11.778418   43.249939    1.127169
H    8.143211   21.667505   60.840809
H   87.404274   27.276382   30.508930
H    1.221956   55.065208   13.182849
H   49.665710   74.641525   80.249390
H   53.019775   58.726944    1.167693
H   71.896019   98.716461   57.366592
H   21.689934   96.772194   62.255878
H   13.269249   29.388021   21.273718
H   93.203918   76.101959    9.415724
H    7.471670   60.156509   18.633799
H   58.714386   63.691414    6.147835
H   87.225548   91.369095    5.294005
H   19.938492   48.603542   99.752724
H    4.410901   88.020966   84.122833
H   20.656754   47.660309   89.859314
H   49.775246   72.712090   55.272110
H   68.739716   68.992004    6.993169
H   33.230217   72.513855   56.438416
H   34.306278   47.335766   36.663063
H   29.771828   30.490156   53.425907
H    5.230501   82.186531   55.822811
H   69.749130   93.513008   29.824724
H    4.293878   24.163803   97.554314
H   22.080366   63.630711   96.238243
H   35.857887   78.078484   49.866982
H   60.120396   71.376503   40.493752
H   91.928642   26.833633   58.256882
H   13.805612   55.274414   88.774620
H    6.786916   96.112114   11.379144
H   38.188736    5.875063   20.741819
H   52.641891    9.646191   12.550249
H   31.358170   22.718668   83.243820
H    9.449102   59.980820   49.993061
H   51.134914   48.619984    5.815244
H   89.499779   32.766357   29.367083
H   34.445835   79.655060   96.064354
H    7.329444   57.923775   44.138840
H   22.971407   25.600033   86.643532
H   43.331280   14.300709   94.108315
H   62.780354   71.346466   51.319206
H   56.383289   23.120569   35.267357
H   43.776993    9.333065   37.009224
H   82.384911   71.749916   95.243439
H   43.339085    9.555014   81.821945
H   36.055347   13.755745   97.204857
H   64.763741   37.629456   46.406677
H   14.307934   63.255943   50.694855
H   26.290817   94.675293   23.265089
H   96.937027    9.700686    0.916687
H   67.038307   11.812840   12.209343
H   25.455658   22.472622   44.165115
H    2.747779   52.597088    4.662973
H   81.242294   34.857975   86.986824
H   29.640673   53.287228    4.351129
H    3.298923    2.867289   73.460724
H   56.966045   23.442827   48.739426
H   28.031126   56.449188   54.000950
H   39.251644   45.679035   46.448448
H   35.848427    8.346138    5.475479
H   71.423775   41.500874   97.127884
H   94.272621   71.609802   94.991379
H   91.170219   56.212669   91.269112
H   84.964661   83.643623   96.060333
H   36.486610   12.099679   29.833252
H   51.833954   62.116486   53.864578
H   31.338339   85.050224   92.671379
H   70.905266   78.898422   43.096123
H   92.060448   32.478222    5.621051
H   89.345024   80.233391   14.657932
H   11.552340   93.048721   38.694584
H   58.549343   74.567467   63.221218
H   90.700287   45.605602   47.737534
H   67.406502   62.234615   88.830765
H   63.601696   57.152325   41.002399
H   43.458130   61.821426   61.506935
H   88.249710   52.223938   86.490143
H   35.493473   42.690643   17.362640
H   21.153996   80.373474   86.599419
H   89.287781    8.008694   28.862881
H   47.080894    7.477188   52.003662
H   99.323242   89.606384   67.728096
H   11.590511   44.174187    6.159459
H   28.152424   98.435135   20.522305
H   34.272217   18.900459   90.354080
H   77.619797   98.111626   84.855858
H   58.136143    8.355619   27.330742
H    7.612539   76.644554    8.461644
H   10.012363    8.416832   77.992363
H   16.434982   89.348640   28.300537
H   48.765091   22.283474   82.255028
H   16.756186   39.175476   12.930008
H   80.377586   48.463070   19.386894
H    6.547806    9.505617   38.215240
