100
TIME:    9.916, STEP:  9916
H   46.743073   12.677562   90.067642
H   26.620205   42.198246    3.339816
H   50.217777   87.301018    6.940727
H   83.140976   24.111811   96.632217
H    6.343416   67.568115   96.843208
H   74.252441   90.465355   60.761337
H   33.272839   30.914064   65.897293
H   40.508255   46.461384   97.738914
H    9.873665   32.909073   75.911400
H    3.915367   58.764072   95.972237
H   77.892792   65.232880   84.587303
H   77.376015   20.727772   87.097664
H   11.439270   61.785370   39.683067
H   64.100479   74.512001   11.851452
H    1.045878   84.286835   74.038353
H    2.821162   44.439377    9.925944
H   26.721382   37.836792   76.080948
H   13.115096   12.326248   55.788017
H   99.714722   94.340454   85.785812
H   25.361820   95.235565   91.460014
H   75.846725   69.049751   88.104767
H   13.036926   57.247620   74.839294
H   53.348938   13.982677   48.656631
H   97.718185   55.452362   70.626907
H   74.931625   99.771164    9.767036
H    0.849527   33.779831   57.742817
H    7.010826   30.279932   96.712082
H   95.858772   19.285069   94.541527
H   26.785122   48.748905   88.437881
H   81.216850   45.418625   71.682228
H    6.311681   11.243082   24.856735
H   91.859726   78.541840   81.290306
H   68.828285   42.980286   91.108543
H   97.076126   64.980461   54.005775
H   34.174049    8.889595   28.350554
H   34.617817   62.099361   88.252815
H   30.872749   41.390388   89.807449
H   54.143841   77.488869   22.185951
H   26.513966   65.364098   83.378609
H   29.217411   83.880127   18.204512
H   57.562943   96.425964   75.961143
H   64.547234   80.493973   86.179436
H   96.624237   22.973019   17.716076
H   46.182354   79.088905   50.266308
H   96.490143   40.629307    4.637009
H   50.133469   52.043346   23.446203
H   19.217525   64.108765   20.655783
H   56.792843   97.501587   82.123077
H   54.882645   11.209169   48.907684
H   33.919540   81.670158   90.206215
H   46.496021   12.593597   52.312332
H   87.046341   43.608078   23.112162
H   14.550428   79.505066   26.966167
H   47.057281   45.416832   69.382027
H   51.268410   27.595385   84.675934
H    5.946125    2.103054   55.062744
H   24.883583    3.424193   99.081459
H   87.690384   40.443520   58.141991
H   72.335243   57.759109   50.234219
H    4.666027   89.964539   81.575966
H   85.213074   17.431616   41.273739
H   46.979698   35.645340   46.688599
H   47.284527   30.676172   53.520645
H   23.953686   95.779633   57.922958
H   25.905281   68.869240   19.002367
H   92.194611   49.319817   32.496166
H   91.988808   91.184265   45.807079
H   95.399666   84.643684   40.244751
H   51.115303   37.285812   38.318897
H   31.413773   46.698360   80.811951
H    7.145398   20.710972   43.207893
H   56.707779   22.350975   82.884125
H   60.450775   27.824343    7.501186
H   11.922100   21.837029   13.978735
H   40.133827   42.916035   53.139347
H   60.081184   43.095654   28.708668
H   67.367134   67.546188   66.607628
H   97.843742    2.346907   62.075241
H   37.021309   24.392300   28.320765
H   13.235873   68.847664   66.648994
H    4.937473   31.867929   72.649254
H   85.384270    8.786141   57.430359
H   45.082527   72.948891   74.293243
H   32.354374   60.692947   57.743164
H   69.505203   28.614777   86.509369
H   23.073269   73.286705   30.380482
H   29.422136   82.377861   96.376228
H   15.504152   11.589379   92.769928
H   61.469975   42.064842   47.090706
H   89.631195    1.303329   78.688660
H   29.826895    8.865932   42.869896
H   11.982485   41.257095   22.465761
H   21.088078   25.043905   85.824089
H    1.929624   14.486638    1.066657
H   85.148483   61.515755   43.944038
H   12.942580    4.160842   55.274658
H   75.516991   36.736496   66.909775
H   19.137133   77.103455   79.810265
H   36.337517   79.621880   14.468166
H   55.131218   24.174911   42.500492
