100
TIME:    1.130, STEP:  1130
H   40.904701   18.394447   98.111465
H   69.837227   66.013542   49.280270
H   99.179413   55.200603   10.071815
H   81.666275   86.093468   78.224846
H   85.049744   63.332008   35.065544
H   10.493713   99.983879   90.653191
H   93.747536   37.640919   78.820244
H   31.070526   86.361374    4.440517
H   25.850441   77.648453   28.957216
H   43.959419   32.608482   51.941154
H   95.145187   11.710397   30.902475
H   12.710201   80.331856   12.494570
H   71.382019   93.340660   12.816417
H   99.131035    1.593249   43.234089
H   94.245369   69.088287   96.453598
H   56.089569   12.898136   39.240707
H   33.216209   56.725693   76.239235
H   25.291809   39.748871   60.371384
H   62.860199   25.757952   22.895693
H   62.071701   81.817734   93.268333
H   97.220840   43.722717   26.574463
H   70.699577   45.591408   23.037594
H   70.656898   85.431999    0.018514
H   14.052322   50.234318   23.150574
H   89.169182   96.556648   44.899811
H   41.477634   93.939346   83.257797
H   64.638702   95.503738   22.389807
H   37.194923    9.183997    4.124020
H   35.741867   51.614262    3.757292
H   44.322033   62.872421   73.220451
H   60.552738   23.376860   19.993431
H   37.105961   21.292488   94.654335
H   49.953999   85.806389   99.596275
H   25.847160   70.164986   24.145845
H   52.683907   73.500771   93.538422
H   70.803925   73.251663   16.756163
H   88.180687   63.153175   97.505013
H   17.286926   38.271954    2.183310
H   99.918747   56.385826   33.821831
H   56.759354    6.396000   26.939779
H   58.017197   94.955635   68.966843
H   30.063225   62.574837   55.889393
H   20.974188   70.276215   83.094032
H    7.201619   31.708418   91.219490
H   58.635506   87.306839   52.806572
H   63.508923   84.469795   87.760292
H   48.011829   86.697769   37.278999
H   56.299763    7.017831   38.495907
H   98.063347   38.862350   99.396835
H   49.589504   47.948719    4.632057
H   43.458408   60.549400   65.331406
H   60.048637   58.884251   99.878342
H   32.319901   28.560852   37.241028
H   50.522686   88.767708   81.680740
H   50.801331   57.567509    9.994940
H   94.980118   11.344370   54.158936
H   67.887512   56.941353   63.459846
H   41.916199   70.173088   84.448807
H   79.397316   86.513397   24.732285
H   84.450287   14.642897   31.469688
H   30.982431   26.021599   26.292236
H   58.805237   17.427475   44.226646
H   50.880745   30.096428   56.035744
H   20.633932   47.941406   96.459145
H   77.174828   70.593742    0.795510
H   31.927498   86.097481   12.999866
H   96.906113   87.429657   21.619003
H    2.308833   82.162704   20.223135
H   13.220291   68.591736   89.360542
H   53.276314    4.978161   99.353668
H   86.149147   18.515821   48.594852
H   80.793106   14.023117   39.354935
H   33.314224   62.410107   32.773838
H    5.319682   77.871674   36.049339
H   16.654129   30.251554   87.059258
H   52.374783   79.995628   19.895321
H   69.552452   28.605921   11.029007
H   85.069778   76.833595   76.846420
H   15.715715   50.192234   30.288361
H   44.108261   47.412567   23.570557
H   32.995159   40.972027   47.525753
H   26.107613   51.607315   92.287186
H   89.295525   26.117250   37.526707
H   27.903601    8.857156   60.217018
H   97.307251   78.202423   38.211555
H   25.283871   50.562588   20.254066
H   42.624870   21.192726   77.425812
H   74.145935   14.823980   83.995705
H   79.133003   31.255018   18.954849
H   66.430557   62.786133   64.610085
H   70.266792   34.448742   57.325268
H   61.895512   80.493065   55.052376
H   57.786766   61.487442    6.334499
H   56.447350   81.776054    3.009250
H   37.055973   48.511681   42.052055
H   87.254929   51.108269    9.083004
H   72.908340   32.528667   72.201691
H   11.014125   25.858948   37.956375
H   54.881401   41.721279   50.395779
H    9.418259   49.679058   88.850533
