100
TIME:    7.976, STEP:  7976
H   77.937981   90.584068   91.843765
H   80.199173   37.072063   81.018021
H   16.871065   47.729019   29.713577
H   82.815353    4.038456    2.970202
H   23.727221   12.068822   49.442657
H    4.329755   92.567101   68.636848
H   34.948215   99.914337   14.186756
H   92.988419   78.626915   75.864433
H   57.562569   19.433140   98.025772
H   56.906960   30.908541   20.012207
H   58.346939   87.174393   71.460114
H   51.421021   23.486034   25.188362
H   35.146767   79.208847   32.474277
H   60.157280   80.491615   64.218468
H   77.482491   57.577194   67.334015
H   80.825226   14.118977   70.963165
H   82.724495    9.521988   99.475098
H   71.628525    6.726902   23.038830
H   69.491028   12.955136   83.568420
H   77.628098   36.434261   59.375771
H   90.969582   62.182232   40.760952
H   27.047228   54.672241   40.048187
H   79.251106   29.754984    4.146750
H   77.972992   32.244354   14.706376
H   44.316231   53.624352   95.444496
H    9.999874   90.970993   40.305367
H   74.300217   10.923310   58.227200
H   59.549103   28.732412   30.415915
H   84.601067   72.737167   80.142601
H    6.828944   93.433151   17.457699
H   29.960680   37.279106   78.343346
H   69.366814   32.143108   60.885796
H   32.175282   84.920540   16.338026
H   15.106563   42.769844   35.734283
H   82.454994   55.774895   10.317482
H   65.977737   10.143338   94.350838
H   44.800991   12.436560   36.942837
H   34.329887   12.985891   85.285561
H    8.401303    7.634508   71.378746
H   11.943752   65.497833   65.570801
H   90.148849   29.858541   30.255583
H   28.040215   72.881042   87.149132
H   79.928680   11.333496   77.587746
H   70.047989   46.519188   60.585499
H   64.795815   17.201298   38.638214
H   75.168602   15.044173   15.564657
H    4.049631   58.600288    2.026043
H   56.674435   77.520203   62.087231
H   98.178963   71.877083   26.307560
H   93.197998   52.133259   25.850121
H   42.953922   99.611763   37.505737
H   92.761765   23.624876   50.462189
H   74.317299   68.256287   39.638100
H   91.987610   77.070114   83.775650
H    5.733555   57.584190   68.187592
H    3.529857    4.143745   21.104935
H    1.896671   59.402351   14.571542
H   32.145920   23.652716    8.110923
H   19.324341   75.783318   99.168274
H   32.685043   40.850437   36.754173
H   62.832867    7.651283   92.524696
H   15.834114   53.702591   34.465355
H   15.550776   63.015167   86.532196
H   90.737358   85.211700   10.589221
H   48.904922   23.814116   38.339462
H   11.370178   45.762688   17.787724
H   47.639343   24.113949   52.143780
H   29.409019   73.693169   47.501526
H   54.426208   76.681847   59.993286
H   92.013161   49.257137   84.926636
H   68.758446   52.715393   66.475105
H   16.463455   86.765038   40.683628
H   86.940689   23.786951   57.247433
H   54.623058   44.618305   29.246210
H   46.682678   40.059437    6.047390
H   14.212953   18.759190   59.244629
H   91.173546   35.457634   32.196365
H    6.706628   29.191769   54.925510
H   43.990616   30.090694    6.668459
H    8.375062   74.528801   33.781593
H   66.958504   11.797738   56.697540
H   39.809021   96.196121   19.732368
H   22.373972   40.505039   89.536758
H   98.885872   94.682495   34.932751
H   63.965347   49.973232   74.569298
H   67.726730    2.024810   95.660721
H   99.853783   23.432304    3.869739
H   84.305046   66.827698   12.879257
H   21.209202   50.081047   62.957405
H   61.154171   81.122086    9.340658
H   50.433491    4.113285    1.900382
H   68.442131   95.351181   85.501488
H   96.730591   66.839958   35.800903
H   18.115793   97.067589   64.608208
H   18.691315   35.288307   99.367340
H   52.706497   80.768738   55.478188
H   29.504660   25.405216   78.481499
H   22.881792   81.111534   18.762995
H   28.754631   71.244499   76.964149
H   34.631153   73.954880   29.386753
