100
TIME:    1.973, STEP:  1973
H   83.896637   41.087112   97.339676
H   46.387688   11.717310    2.456505
H   13.668928   15.849578    0.174456
H   81.807770   51.362938   32.015926
H   77.499069   30.902164   12.208916
H   97.421761   99.070595   74.139091
H   49.564686   94.563377   44.744026
H   64.812386   59.290546   27.039536
H    5.127892   96.597382   75.894447
H   20.923048   44.712715   84.950371
H   16.731369   45.630344   49.699726
H   80.536942   22.586733   52.488518
H   17.760201   42.338234   29.029053
H   57.390083   98.994514    7.385464
H    4.498508   93.791199   55.933365
H   22.195053   39.163399   69.265396
H   65.441208   12.474648   52.990562
H   43.306664   98.753471   31.146191
H   75.992928   61.125206   67.306229
H   39.361794   63.912251   50.663643
H   47.196014   59.799847    3.694118
H   51.531986   46.704071   51.258232
H   59.401634   78.575935   75.900085
H   35.728462   60.344761   60.543175
H   59.017937   29.697250   51.119148
H   37.612255   68.817596    4.243348
H   91.944725   60.463840   39.118343
H   66.064926   48.532681   31.988726
H   54.071869   28.097738   63.907463
H   76.647148   42.008377   40.236050
H   93.713966   98.974014   53.287014
H   90.333710   98.002357   16.613548
H    9.332617   24.127953   75.540375
H   61.465248   92.909164   88.632263
H   31.729778    9.776523   44.869682
H   44.099590   39.473560   13.857251
H   69.034607   32.281593   63.929996
H   82.443092   22.842594   61.669285
H   62.023544   38.390266   53.025017
H   77.358391   27.477331   93.265579
H    0.409538   23.882013   88.827560
H   54.299194    0.405692   95.495056
H   28.235441   75.331436   43.984955
H   53.369621   45.838531   73.642868
H   85.512215   54.044636   24.945284
H   52.633121    0.548741   91.181892
H   56.913136   32.173157   44.482368
H   56.344784   15.697248   90.656013
H   22.703451   69.044640   65.772537
H   67.268730   60.779720   45.669811
H   43.394093   79.162941   74.219849
H    1.017725   80.659775   44.538769
H   49.807365   33.448853   88.281029
H   31.002842   75.016991   18.879400
H   83.689713   31.468367   17.148207
H   96.034897   10.458420   25.461227
H   21.331850   32.617119   43.636223
H   79.143402   90.561829   62.735794
H   45.882576   22.132803   60.016098
H   28.821194   79.439529    7.493331
H   84.158798   86.818306   60.564022
H   28.885864    9.579632    6.081326
H    8.059614   72.609398   98.202560
H   78.522339   52.527122   73.575584
H   10.633067    3.263291   79.303268
H   80.140816   44.189308   62.844509
H   29.271490   16.575075   62.318859
H   44.077248   30.375748   60.523411
H   55.237694    8.019119   36.489609
H   70.354553   47.379875   97.578552
H   59.380913   61.157631   38.484409
H   11.284623   86.044937    1.075004
H   78.348160   20.714176   11.157299
H   86.769554   24.523844   85.947304
H   57.296494   31.451044   50.964947
H   72.303566   34.023155   63.170376
H   46.090843   55.541229   25.942438
H   24.675457   21.710623   23.400974
H   56.125328   47.722507   39.690742
H    2.765655    1.499639   50.945442
H   49.492161   49.693249   97.910744
H   89.359314   57.112747   21.796606
H   42.634556   40.188202   17.818241
H   85.894722   80.993752   83.218140
H   56.260910   25.471634   56.492203
H    5.879883   81.527000   78.794304
H   98.926918   59.899750   17.623701
H   87.716568   47.331345   75.231178
H   96.626900   84.318977   12.057899
H   91.898544   28.100624   94.748466
H    4.765885   79.967285   75.127884
H   24.269407   43.893764   71.114876
H   11.875668   86.750046   71.551743
H   37.925930   32.909336   59.846687
H   22.479912   73.000885   61.423973
H   56.883301   17.819784   65.540909
H    5.995196   80.907005   23.720444
H   14.109323   33.036591   24.467556
H   14.723951   45.355122   79.781540
H   61.771317   28.024521    7.657469
