100
TIME:    7.663, STEP:  7663
H   99.105217   19.287281   92.130325
H   88.843735   20.110096   61.283253
H   11.490900   25.210533   33.387966
H   82.762817   16.934853   20.127167
H   26.531927   86.980583   57.929611
H    9.183963   92.906197   37.638573
H   51.351391   78.780533   89.709732
H   17.589607   51.548084    4.601922
H   65.256706   49.527222   17.727943
H   65.456001   26.414324    7.755801
H   87.461441   74.580078    1.610937
H   63.368187    7.797184   47.468040
H   55.105675   98.155243   63.577984
H   75.655403   81.456367   40.398182
H   73.680794   85.535904   82.387970
H   93.409988   41.495056   96.944611
H    7.894194   88.818954   70.981476
H   64.937347   21.957230   33.888504
H   64.614731   99.823730   67.076889
H   86.062515   43.080067   38.065254
H    9.543427   93.341003   49.255070
H   97.039612   54.256729   66.703049
H   83.430107   32.299538   13.102349
H    7.054369   28.499971   37.952705
H   55.511177   78.446228   93.132912
H   11.475658    0.198199   69.760887
H    1.289460   23.934565   52.016010
H   85.959984   14.122626   20.069902
H   77.795265   44.339069   94.938652
H   94.827240    1.179911   92.575493
H   17.642179    9.212112    3.106888
H   49.603725   40.790058   89.861794
H   10.127899    7.821151   88.140511
H    1.881218   71.454506   48.920822
H   90.244652   79.473412   91.274506
H   38.768864   85.627609   95.334694
H   14.780751   23.900156   12.279660
H   47.265686   18.714390   63.196640
H   21.613766   14.453444    1.711073
H   41.424431   94.798599   40.943504
H   11.540022   19.119703   22.881437
H   54.418068   71.653610   71.168633
H   77.235016    9.455931   54.979107
H   90.035553   41.265587   29.983192
H   91.947380   29.549648   11.853500
H   79.209099    9.075366   14.293047
H    1.602826   41.578621   99.020638
H   56.655331   74.296402   42.720547
H   89.028145   97.801216   38.793869
H   86.626221   47.369198   47.735809
H   42.975414   29.830694   34.205521
H   77.550201   52.669781   71.008545
H   67.826714   66.441406   57.815559
H   99.237579   82.175659   69.963455
H   30.655895   30.153309   65.527359
H    3.140016    4.472991   31.760193
H   82.052567   68.433769   84.802452
H   55.452805   53.211723   16.173422
H   94.638054   62.558308   23.197491
H   53.338860   16.791332   45.656639
H   43.088879   22.206997   16.928787
H   26.943092   56.615952   48.628586
H   94.301384   84.373444    7.995544
H   69.245354   83.506668   19.087734
H   36.480156   48.813702    9.190597
H   30.597164   61.322899   99.280212
H   72.751556   13.292873   37.032513
H   51.029976   55.792717   32.538315
H   38.825401   99.172035   79.623138
H   85.656303   33.536930   85.590500
H   78.697304   74.011581   70.229042
H   42.237865   97.157616   17.741365
H    7.348776   39.268993   65.273254
H   61.512440   64.426819   47.843781
H   31.604876   39.598553   82.315567
H    6.813088   98.698753   80.306252
H   62.746784   62.549500   26.645414
H   92.001999   49.656933   37.638775
H   28.982031   31.010075    3.175411
H   23.724232   91.579124   60.746895
H   60.830894    8.559609   37.989944
H   16.322239   94.166321   45.917355
H    2.576086   35.270542   59.729393
H   77.350883   67.898682   63.519505
H   79.205566   69.553123    4.911134
H   74.928940   90.528763   73.925140
H   78.949226   46.189949   88.944695
H   79.271141   91.873047   16.124550
H   14.712647   67.508675   65.517342
H   88.826569   93.998184   98.151779
H   37.624256   87.211479   95.290329
H   45.283298   71.810272   79.536263
H   76.666611   57.448673   11.596133
H   87.865395   78.078209   43.503063
H   24.103718   63.325821   92.174683
H   26.854004   93.129028   71.644951
H   54.349297    7.443586   96.482246
H   23.485956   65.622963   25.047018
H   43.665306   69.892891    3.179894
H   15.190414   81.988113   59.540035
