100
TIME:    6.531, STEP:  6531
H   75.657547   23.096464   93.166702
H   20.105198   58.770710   89.905861
H   92.028946   43.769890   46.679501
H   82.572815   63.573212   82.176880
H   36.673477   96.245880   88.623642
H   26.741077   94.132576   25.532730
H   10.681109    2.341069    1.185793
H    6.562576   53.615635    8.538489
H   93.083427   58.364380   88.983604
H   96.374580   10.159702   63.432804
H   92.757324   29.031317   10.650879
H    6.569244   51.055836   28.044930
H   27.310135   66.648048   76.068535
H   31.704269   84.945503   54.252979
H   59.931526   86.651726   36.826618
H   38.927109   40.503944   90.910645
H   98.922829   13.946431   67.931038
H   40.729641   77.040665   73.126015
H   46.987385   52.338272    7.441574
H   16.561859   67.116493   60.993462
H   76.717926    6.035004   79.979500
H   88.513672   52.753983   63.103302
H   98.543938   41.506020   45.491455
H   12.233536   14.957979   22.024275
H   95.998970   68.219910   84.772804
H   16.774340   33.586830   76.270744
H   98.903099   70.992691   29.552542
H   81.474686   61.284706   82.653458
H   53.181313   41.635143   48.447815
H   51.420322   29.197777    2.584782
H   73.092796    7.703439   92.667076
H   78.128632   72.064957   94.656700
H   30.391594   90.643684   86.161011
H   54.052330   75.195572   96.611435
H   18.417770   65.181709   22.402040
H   40.366009   96.964317   98.892921
H    6.207253   65.356079   23.082434
H   94.055016   39.433292   83.315971
H   69.398407   39.116142   11.410044
H   48.045895    0.772431   51.880581
H   88.904419   80.276909   96.213234
H   49.816910   67.214462   13.379518
H   67.493073    2.665396   73.214348
H   62.315784   22.265341   19.302546
H   90.139870   74.210831   14.985515
H   93.822014   87.485672    9.694124
H   92.758102   80.015701   88.155952
H   56.588207   62.637161   72.679199
H   55.935280   91.552956   83.950180
H   62.859058   30.138964   26.884039
H   43.053143   39.117935   22.273434
H   22.530556   57.712128   45.316780
H   44.345547   59.877686   23.557978
H   25.449524    0.640679   20.011124
H   20.787113   30.950272   55.899059
H    1.730112    5.663745   70.296143
H   10.289754    1.096971   77.139854
H   39.743561   60.115227   45.332504
H    5.363757   14.720933   10.098310
H   28.040352   29.782505   77.853416
H   71.681053   74.848892    5.188559
H   67.119972   67.152451   99.845474
H   17.449621   61.619423   85.620178
H   91.511642   77.340225   49.824947
H   91.549088   39.224087    3.772254
H    0.137959   17.597557   32.347534
H   63.574173   74.154358   82.378494
H   29.225060   91.051674   78.422165
H   82.406502   80.510330   50.620655
H   62.698692   76.633232   87.980713
H   14.643389   51.032104   83.805580
H   35.456455   34.773941   34.790848
H   81.157532   95.257446   94.291809
H   86.436440   36.072483   15.103800
H   77.055901   37.952457   96.491714
H   80.055443   26.148209   56.475006
H   59.937099   60.527058    6.569852
H   38.818584   23.673796   75.123222
H   74.697243   34.335117   90.547218
H   79.238846   53.245369   58.269676
H   38.674240   96.847855   70.331680
H   31.378294   86.825317   40.620960
H   30.975456   16.339392   51.923470
H   99.472481   71.030907   66.910240
H   34.324257   40.367744   14.645061
H    0.976835   48.949646   95.315536
H    3.345460   28.495888   34.966728
H   61.065453   82.456970   27.861519
H   91.219101   30.536089   74.775642
H   88.910507   40.573582   57.682610
H   91.298058   26.087452   71.384567
H   61.526760   86.673218   57.964767
H    4.103251   23.481419   24.056833
H   78.462563    9.401172   67.174301
H   43.675713   64.723465   66.161621
H   33.355438   37.828949   30.114471
H   44.202019   42.480270   61.585587
H   25.670984    9.613454   47.770905
H   97.591454   65.004646   97.996651
H   44.876011   11.039284   68.589333
