100
TIME:    6.754, STEP:  6754
H   60.576736    2.646805   92.962540
H   13.947144   70.854469    3.966125
H   95.863800   59.813667   44.061115
H   82.610245   54.385895   69.954346
H   34.676086   14.120222   82.577026
H   23.282223   93.890984   47.617771
H   98.993820   17.399456   18.624750
H   89.035210   72.908081   88.063850
H   87.601662   36.923904   74.947426
H   90.283730   13.362078   72.164162
H   72.014404   38.004261   89.170006
H   98.057785   62.233738   12.172138
H   13.080002   53.161739   53.910088
H   20.663326   84.258156   71.223274
H   62.640083   66.732262   26.102978
H   29.960773   20.999611   72.399902
H   80.990547   28.695538   88.231606
H   45.498539   66.189423   65.395058
H   50.459850   61.694023   19.189442
H   10.554375   62.380505   76.176353
H   63.484787   83.835297   73.926079
H    9.892899   53.050018   44.112778
H   95.566566   39.692375   39.111374
H   91.513908   17.625704    5.462197
H   88.023018   50.534729   86.419716
H   15.757780   26.994080   55.300552
H   79.674385   61.723289   33.977764
H   62.657822   71.693596   90.023727
H   58.030174   61.867657   37.906219
H   59.971333   23.678581   20.312107
H   81.868385   27.700142   75.024025
H   92.209045   65.902649   74.012459
H   46.100117   74.327690    6.250615
H   63.474434   54.758896   87.216553
H   12.867710   48.297462   35.970345
H   59.751247   14.430856   98.191963
H   27.595818   57.189575   40.654026
H   84.837074   35.351742   99.053505
H   59.985783   34.257072   89.799820
H   27.042465   79.896759   69.426132
H   73.663681   87.929604    1.466918
H   31.023743   68.088959   24.764133
H   69.412201    4.003193   89.322777
H   48.077145   26.008322   41.105904
H   70.795464   65.411423   34.068668
H   90.943321   91.739059   10.600096
H   94.500290   92.142960   90.296257
H   56.600117   64.933990   86.477188
H   62.453171   73.083046   75.055496
H   67.540771   33.533634   11.291842
H   43.037830   17.588419   24.623856
H   33.370632   37.018547   30.678322
H   48.971531   61.170715   10.606413
H   20.285912   97.002945   29.850910
H    3.030982   50.493690   57.796070
H    2.007858    5.429171   62.704697
H   24.426485   94.662392   98.348946
H   23.138792   39.055855   39.588730
H   22.950920   24.144680   92.979103
H   13.325254   46.923656   71.510765
H   85.747856   64.477432   87.801102
H   59.205269   65.076797   89.756439
H   32.589161   46.402504   70.328400
H    6.824309   78.554993   43.769825
H    0.399583   21.413109   24.539843
H   86.438660    6.511892   45.533035
H   45.682724   81.864899   93.144669
H   13.820930    3.805251   89.082855
H   93.519753   64.486969   36.633816
H   67.217003   87.848564   87.511139
H    7.561911   35.859421   81.131050
H   17.069220   27.373047   51.118752
H   66.617752   84.226257   88.575256
H   81.526329   21.959137    1.854399
H   87.808464   38.270611   13.396954
H   85.326241   40.440945   41.470757
H   80.190033   41.225185   10.524729
H   49.295528    9.092333   87.437630
H   85.391960   33.680096   93.034599
H   68.302536   41.097694   39.057976
H   43.038216   99.154892   83.660095
H   48.111153   88.271469   21.965145
H   45.081390   20.068762   73.160751
H   14.814473   90.113304   46.543079
H   23.465540   26.418335   93.027916
H   95.845261   57.141670   10.801539
H   18.239183   12.281877   45.600197
H   64.651909   64.613159   25.549377
H   95.846786   18.120451   72.951790
H   69.195206   31.398174   65.653809
H    0.424132   38.128357   76.093918
H   78.026505    3.445052   62.213051
H   18.397739   30.172848   41.301765
H    0.015327   22.930140   82.210876
H   39.820442   44.747917   71.286102
H   51.774307   29.023024   18.596298
H   26.501387   55.277863   48.760773
H   25.240541   20.647591   43.294640
H   86.968193   65.967613   79.319176
H   58.726742    5.316876   47.106686
