100
TIME:    9.357, STEP:  9357
H   84.546539   63.940102   90.579422
H   42.058151   11.905293   68.095024
H   40.609112   47.083656   13.503237
H   83.047150   47.142632   27.273119
H   11.352461   22.761795   11.999557
H   82.918579   91.070961    5.400584
H   62.567966   93.166847   22.182766
H   84.444550   98.102005   49.065643
H   23.614952   86.654480   11.097029
H   19.185595   50.737659   74.085121
H   29.889679   42.740158   38.433876
H   98.708702   92.708824   26.887199
H   47.084869   95.622261   95.234894
H   91.779236   76.234993   69.312859
H   94.256111   34.219460    0.923718
H   25.298847   93.331406   56.328186
H   71.672707    0.864611   25.192976
H    1.160719   39.527199   75.165604
H   91.005936   70.892410   56.323330
H   40.420940    7.107561   53.400658
H    9.018841   24.698530    3.278871
H   59.445049   56.505539   22.443268
H   60.812767   18.528669   64.635742
H   49.658077   48.765106   12.141619
H   94.925156   44.104073    5.640811
H    3.486526   50.259140   10.346243
H   55.215111   53.518841   85.623520
H   43.025002   93.192841   76.066277
H   14.630233   98.032555   14.861729
H   59.781807   59.253738   27.242912
H   84.312767   61.115147   69.083038
H   56.563984   93.989059   33.039696
H   29.451622   83.880020   40.749413
H   73.457489   16.209351   77.556175
H   48.085930   51.213783   94.339645
H   86.025726   18.313002   90.009926
H   77.256592   61.861580   45.760273
H   77.248878   87.715935   82.738548
H   50.111279   77.544456   37.549255
H   81.868317   36.212234   74.224686
H   95.767303   77.242752   62.791348
H   11.656960   78.296646   57.650997
H   91.813507   19.618729   77.338097
H   81.872597   69.706276   95.612129
H   45.005196   62.725559   56.817432
H   57.345299   41.381268   21.175180
H   14.846354   33.704792   15.288351
H   56.758724   91.744064   47.535297
H   38.543846   57.502590   71.221100
H   22.186987   73.157555   29.291061
H   43.382694   66.326027   51.263184
H   59.879360   95.478638   59.807289
H    2.955442   76.263794   59.433998
H   60.001045   54.539307   44.714241
H   95.776192   78.607986   79.924911
H    5.249891    2.691068   74.092422
H   89.445374   19.554466   45.916069
H   29.314043   93.233604   72.540062
H   28.245602   34.136208   93.148323
H   41.552883   46.998936   97.475258
H   49.949749   43.426960   84.854012
H   66.819695   40.848434   71.981972
H    9.306964   68.778099   91.832886
H   85.568542   92.734543   73.098938
H    3.717490   13.514706   66.945305
H   26.533764   77.109459   99.443230
H   36.839279   71.856049   18.818184
H   34.013885   52.674507   13.521317
H   23.253160   77.451996   73.378937
H   20.060791   18.622972   81.997574
H   24.898266   58.749004   49.912209
H    2.741513   40.911522   41.909924
H   96.898026   55.473568   21.835285
H   24.226139   57.214420   47.192085
H   13.207170   42.092922   10.755585
H   46.864471    7.268275   66.320663
H   16.597931   15.927769   56.693016
H   71.580910   38.896584   31.202126
H   10.216611   26.034260   22.081316
H   40.648857   99.298561   14.807209
H   93.994377   26.084818   39.238564
H   43.437477    5.157187    4.197673
H    9.724154   63.600376   21.056179
H   93.895943   12.857813    8.800566
H   96.723358   63.582130   40.697372
H   35.940266   52.753471   91.561569
H   92.087715   23.022041   69.721031
H    6.514866   56.319801   98.561569
H   49.869633   73.189583   51.662605
H   39.054379   24.303566   58.704788
H    6.949917   78.680420   31.064842
H   70.622147   99.215683   11.816476
H   85.255325    8.270323   42.595757
H   51.058754   80.810715   58.529263
H   94.812592   11.586002   31.098516
H   66.771423   26.233957   84.147568
H   19.887722    4.657873   99.058075
H   20.216135   49.444004   91.035301
H   62.967125   77.207985   61.291752
H   20.411224   38.518703   96.349960
