100
TIME:    8.897, STEP:  8897
H   15.654469    6.124358   91.000565
H   54.762619   86.979279   39.089321
H   32.702160   13.989821   18.903042
H   82.969940   66.094048   52.488701
H   15.474394   85.891037   24.470924
H   90.049927   91.569313   59.846451
H   86.678169   62.107368   86.210152
H   20.599640   58.304531   91.300468
H   34.922630   30.882446   40.052822
H   31.751436   44.132740   56.074257
H   72.677765   24.231678   82.745094
H   16.266579   69.651268   59.630760
H   76.417450   23.464340   40.947937
H   14.555465   77.652840   34.305912
H   88.668953   75.308937   23.044373
H   43.794662   33.564903   94.511780
H    8.663194   70.437141   83.317360
H   91.320419   61.910927   91.112869
H   83.839493   51.594807   32.090084
H   52.813061   16.876314   22.081690
H   36.316124   70.493500   15.764795
H   15.344399   55.894882   61.616547
H   66.954430   22.268064   77.796448
H   92.398209   43.262177   46.305889
H   11.377145   80.583954    2.245236
H    5.656340   63.819931   53.635311
H   94.880501   72.640640   76.498764
H   81.838409   71.721588   60.862305
H    4.627367   56.297329   36.605339
H   42.142952   70.638626   90.674927
H   66.210655   19.867226    5.476753
H   27.519184    6.698930   75.624229
H   97.048965   17.535507   99.308975
H   54.021759   58.365723   96.935753
H   59.533989   86.042274   66.354721
H   46.038242   82.283340   91.455849
H   33.137344   78.707283    9.514094
H   96.263466   96.131767   50.276955
H   69.528465   87.567650   82.127197
H   25.195829   79.276329   38.031982
H   27.204187   61.457489   51.953945
H   50.423233   76.492752   34.168789
H   87.854767   16.858490   44.112049
H   11.241528   61.984413   50.635143
H   84.906784   80.870033   17.451780
H   63.279900   32.607464   19.306360
H   11.249972    8.687048   10.870741
H   56.730648   87.006210   19.073078
H   25.098869   95.601357   89.568878
H   12.531979   66.152550   61.455677
H   42.890682   10.695408   47.216599
H   37.523708   38.163326   90.003212
H   93.415794   73.596558   86.148972
H   70.654633   62.046173   24.415825
H   32.402992   38.295387   76.015305
H    4.676962    3.174943   89.751907
H   60.281700   32.827477    2.166104
H   63.566833   36.675682   84.388206
H   91.965462   14.698529   28.462542
H   71.907646   11.640508   10.558739
H   20.930185   64.817627   20.716343
H   83.145988   45.130051   92.793434
H   78.078629    0.167267   23.376465
H   53.981739   90.228745   85.585815
H   85.460571   50.255886   24.107759
H   54.792091   99.977501   72.244438
H   73.745407   55.952671   96.608566
H   65.789093   26.366760   91.530655
H    0.325936   10.504646    2.227419
H   10.718444   95.518509   82.973221
H   39.507549   90.047508   55.429176
H   40.620834   56.184959    8.192914
H   26.890747   78.227989   33.630787
H   34.351109   86.328590   74.524239
H   91.049088   41.415585   75.878204
H   35.988464   77.787834   97.274643
H   74.820145   55.743290   48.533379
H   49.971554   68.973183    5.796661
H   88.157097   27.385426   16.946886
H   63.208061   24.357824   54.436699
H   84.988945   21.325907   11.744836
H    8.920338    2.171023   42.680801
H   80.629524   55.907505   77.248726
H   62.247269   73.494728   50.813198
H   19.121124   92.360153   85.289352
H   46.528492   35.855125   59.617905
H   61.365360   56.467781   47.786522
H   99.117271   93.127663    3.329851
H   40.323734   98.802071   55.424812
H   79.724869   43.230415   42.262680
H   88.124565   53.841465   21.350487
H   36.586803   64.618820    3.052977
H   55.768330   94.468834    7.023250
H    7.126255   52.943592   26.708853
H    2.765651   52.791294   20.529593
H   28.777344   44.398682    7.907316
H   56.400200   78.259407   25.514011
H   21.104044   26.684349    0.272306
H   84.880577   75.221596   99.819527
H   91.838715   50.321224   40.664104
