100
TIME:    7.414, STEP:  7414
H   15.943851   42.121376   92.358292
H   95.720718    6.616696   45.582073
H    7.210789    7.297129   36.311634
H   82.721024   27.194286   33.775822
H   28.763147   67.022133   64.681213
H   13.045617   93.175957   12.979050
H   64.400620   61.967785   70.237610
H   37.160515   30.007168   27.464806
H   71.377602   73.467484   33.401661
H   72.256996   22.839052   98.005836
H   10.622803   64.560959   25.595831
H   72.870712   95.316315   65.192421
H   70.983528   13.226357   88.323692
H   87.984581   82.223854   21.448483
H   70.656441    7.777794   94.363800
H    3.421798   63.273438   17.614084
H   27.917427   72.348389   48.314022
H   59.612766   34.073639   42.518929
H   60.737103   89.379074   53.958881
H   92.772324   48.366985   21.112162
H   24.319443   18.129875   56.012371
H   73.167740   53.926178   87.907715
H   86.754616   34.324638   20.227053
H   30.190100   25.521212   56.446472
H   64.417061   98.191910   91.293983
H   12.649685    7.537750   93.192024
H   22.761049   34.285393   47.074841
H    6.970401    2.500160   11.839129
H   72.381065   21.748041    6.708895
H   85.279251    7.343075   72.780418
H    7.842083   86.883331   22.806923
H   33.881649   47.668941   12.912910
H   92.588875   26.038511   65.708626
H   91.360481   94.273933   59.411072
H   96.441536   98.326225   76.126144
H   17.124115   66.125092   96.117378
H   90.898148   33.019653   92.659637
H   57.556465   23.271816   45.626137
H   32.124912   19.878092   25.840408
H   64.876534   18.109221   21.352217
H   28.556757   10.576665   17.015104
H   75.402367   70.677155   58.456539
H   75.092133    7.962276   36.994465
H    5.935608   37.086205    5.637519
H   13.546589   39.373096   90.545723
H   82.423424    4.326834   13.281446
H   99.656540   28.037144   96.630791
H   56.640133   71.731781   27.313824
H   81.748421   18.422939   48.727501
H   81.398193   43.579258   65.146614
H   42.992512   53.869827   31.580261
H   65.448990   75.775101   87.353729
H   62.662785   64.997620   72.276222
H    5.003471   86.237259   58.975479
H   50.481430    8.332017   63.410542
H    2.829887    4.734915   40.236740
H   66.265900   75.618507   61.120552
H   73.994064   76.726448   22.587824
H   75.000786   52.035763   42.312904
H   69.770195   97.651978   52.738792
H   27.381720   33.786591   36.342018
H   35.780586   58.933609   59.895821
H   77.397682    1.364577   25.070221
H   52.146564   82.150269   25.848835
H   26.596436   68.701416   86.002251
H   45.893616   73.701469   84.557388
H   92.729004    4.684679   25.010538
H   68.230034   41.552422   20.634674
H   26.414536   17.063568   95.238831
H   80.599251   21.031076   86.118622
H   86.603935   90.953278   73.215401
H   62.741535    5.425492   99.490120
H   23.584726   51.584873   71.656311
H   66.994164   80.186890   62.638794
H   19.610998   39.231907   63.436161
H    0.926157   82.741112   97.061775
H   40.132526   84.100044   22.229517
H   80.303528   65.938332   23.886705
H   17.042295   31.741467    0.396563
H   35.934982    5.143385   82.198524
H   55.956215    5.983590   23.107544
H   97.637733   92.551559   66.748024
H   86.827141   31.106359   36.015198
H   60.219631   46.591427   86.262901
H   91.329575   85.130821   29.048235
H   80.658493   81.383514   56.633896
H   62.319080   64.294273   77.071449
H   75.266533   11.797865   18.706268
H    9.544461   81.372826   67.553841
H   10.841199    4.242260   89.249695
H   27.434162   73.765266   90.031906
H   26.859819   53.082840   74.790764
H   60.705173   49.977077   92.340584
H   63.799767   62.971642   26.713404
H   28.409431   85.628586   86.452728
H    6.287623    2.961788   84.506050
H   74.113976   93.154144   10.802690
H   23.966585   53.303036   30.046129
H   55.527153   68.817650   24.036907
H   99.724327   88.378769   83.526245
