200
TIME:    0.877, STEP:   877
H   29.044703   60.360928   26.231882
H   33.641541   42.177631   15.757294
H    4.786702   97.019539   76.723869
H   39.314453   84.419167   27.842304
H    8.446951   99.873917   44.499973
H   68.895874   35.525814   46.695156
H   12.588218   54.852158   61.980991
H   17.163441   16.392132    2.461833
H   13.297134   77.956474   32.179810
H   88.437592   65.975113   70.946648
H   34.396347    8.201571   13.091469
H   33.411880   59.025288   43.094227
H   26.808552    8.149374   35.184166
H   74.296097   55.894474   72.961082
H   88.867752   76.848251   41.411266
H   10.733220   99.720383   40.581570
H   14.175639   37.551743   84.507202
H   21.436514   13.790237   32.179733
H   86.219551    6.640589   51.861057
H   92.082840   70.956810   12.777367
H   65.729736    8.556486   96.656944
H   75.847771   73.162590   46.027214
H   75.930008   57.909950   33.851746
H   22.100595   93.866791   89.588654
H   30.933678   38.323139   22.680485
H   18.133791   90.606316   85.917938
H   11.231745   71.578362   74.693665
H    9.129725   96.407043    2.407389
H   37.897804   37.167793   34.608372
H   64.264091   37.829170   76.591003
H   12.529838   78.062202   16.973616
H   20.342422   78.436020    9.286578
H   11.731918   22.692051   80.959892
H   75.344200   64.272888   49.424385
H   17.418934   63.479710   29.373085
H   12.250337   35.398499   86.777672
H    4.547324   60.680275   90.737099
H    1.406547   61.232887   86.527245
H   29.494759   23.591009   58.591022
H   83.973824   37.068989   38.813568
H   80.693848   75.466667   22.667706
H   45.045456   29.749180   20.942331
H   65.232437   73.148697   73.981537
H   35.862167   94.172173   41.529938
H   50.541996   95.729988   67.351357
H   32.095661   97.260757   49.615700
H   91.978165   95.003555   10.144832
H   74.607803   65.540886   24.747696
H   11.715423    4.579186   61.625595
H   39.321922   20.676149   78.763817
H   63.054993   62.433502    2.624113
H   96.788185   46.661968   77.236992
H   69.358482   76.205894   16.251467
H   12.925899   95.626251   91.136276
H   50.236038   62.218254   70.172134
H   97.140190   56.656223   99.507019
H    3.612601   19.155983   42.821537
H   74.368088   73.387581   93.805550
H   14.739826   86.782791   22.532795
H   28.370430   92.412270   55.218636
H   48.356480    2.948377   23.624876
H    1.385249   17.933889   53.949753
H   88.996498   38.401787   63.394264
H   39.560539   66.061142   17.889980
H   81.588234   85.575363   43.978138
H   13.751566   41.308617   44.313278
H   62.380959    9.725227   98.995796
H   93.774239   92.898186   99.883057
H   39.180283   14.461389   53.917191
H   41.570152   52.732483   50.948574
H   58.185719   87.609581   90.320236
H   14.237753    7.078485   40.305847
H   97.711075   36.675686   78.165550
H   28.618217   94.963089   79.117653
H   86.901474   11.183125   37.661003
H   69.414688   96.587997   58.714947
H   92.735184   53.664196   63.135040
H    2.961801   17.569363   26.185356
H   16.376896   58.068840   20.818665
H   58.676392   87.114342   64.052338
H   70.403854   19.336102   91.676468
H   54.646400   57.133949   68.164818
H    8.514469   20.653656   71.641907
H    3.901595   82.689232   14.612606
H   16.224522    6.059896   39.730007
H   42.612980   63.486710   14.522586
H   64.404808    4.111476    3.231719
H   70.034172   94.836288   35.468266
H   85.183395   73.607613   79.464783
H   20.253590   14.600141   47.857494
H   14.540729   40.391800   77.921150
H   79.618317   94.124374   12.267063
H   77.521095    9.677916   77.587730
H   31.463638   71.548264   86.595535
H   41.265228   48.309555   94.470108
H   42.892403   41.951305   99.111374
H   87.946541   92.245766   25.763214
H   95.636002   39.412472   55.918819
H   22.583931   63.396950   55.138683
H   78.280197    8.277789   27.405924
H   38.286953   98.038757   98.935249
H   14.258486   86.293800   62.350876
H   36.383812   13.890024   39.403999
H   52.484108   69.115585   15.459035
H   24.494328   19.101513   45.739784
H   12.641949   95.585701   14.067152
H   89.581390   36.930248   52.000587
H   60.997391   58.731945   94.110268
H   88.984970   32.048908   29.934788
H   24.829443   19.178877    8.654905
H   55.575481   90.531326    1.244027
H   11.570939   79.363708   97.767029
H   46.030422   87.666603   80.079727
H   61.066368    5.664467   58.528248
H   42.592949    8.493818    4.437347
H   88.042450   87.163628    7.671346
H    6.384584   17.412403   91.606064
H   37.539265   58.350281   21.245506
H   43.053272   81.629295   52.057991
H   87.593109   59.388424   73.106293
H   47.202950   25.992428   66.646454
H   90.804695   12.389965   66.925224
H   47.593758   94.956558   42.926453
H   94.692482   44.396641   89.969749
H   57.855751   93.180832   71.745361
H   71.059151   79.780998   13.232336
H   79.553001   52.164200   46.453827
H   61.495270   92.565971   40.382511
H    0.306788   29.425758   70.373672
H   98.620293   21.130117   77.353821
H   74.322815   62.441254   27.754704
H   57.249725   92.369278   24.349010
H   90.357704   13.585938    2.114280
H   69.685829   29.334915   57.546741
H   35.894283   89.852127   27.145561
H   45.392082    0.809320   74.297089
H   69.947319   88.187737   87.049667
H   96.651741   44.331711   73.133469
H   62.963333   53.241875   71.399429
H   43.792999   78.539894   77.757645
H   82.153709   44.336086   35.486832
H   27.913683   60.365475   61.096390
H   34.528210   68.484627   77.898521
H   28.524376    3.469310   88.680183
H   70.243935   48.640984   69.898178
H   69.280472   72.949890   99.337868
H   59.797020   93.988197   42.720856
H   25.258774   49.707123   65.170311
H   82.214447   38.196415   91.611977
H   29.767763   95.629349   66.159004
H   53.768482   72.128143   46.535301
H   60.602001   89.483337   28.190189
H    5.767909    8.020100   81.103737
H   26.748533   15.764293   60.210640
H   38.871994   70.702637   72.276779
H   82.412064   45.108379   73.659798
H   65.979080   79.987556   88.298386
H   55.102535   26.439476   24.647745
H   83.227295   99.333984   78.981018
H   56.538017   30.952892    2.686282
H   60.213100   58.530289   66.479050
H   13.695389   19.755198   30.025532
H   92.639046    6.796818   36.967186
H   34.656731   38.892799   43.946125
H   52.854980   43.702877   16.083511
H   22.888620   44.170982   58.819687
H   63.930984   87.263924   58.974564
H   24.188675   59.914722   74.353500
H    2.729053   26.098667   35.352787
H   55.542591    5.652641   83.230103
H   67.195740   13.209226   35.922615
H   24.156769   41.786716   59.414234
H   49.980701   50.081909   72.500626
H   63.381824   59.302540   89.018303
H   41.831207   90.244659   69.279709
H   20.570885   51.106037   23.909306
H   28.873856   72.821190   13.553715
H    7.375654    9.808350   73.025436
H   59.310402    6.570988   61.685333
H   55.999546   61.288155   95.371002
H   69.788017    8.016986   26.909098
H   32.076084   30.883633   92.870903
H   36.304535   89.494423   18.687340
H   65.353050   26.399017    0.624826
H   93.760536   60.705711   75.772476
H   12.595668   41.598846   87.142311
H   53.532684   93.613708   13.379562
H   59.818108   94.206856   47.816235
H   88.170540   64.014015   73.823578
H   61.197201   54.808186   73.751053
H   78.249550    9.949284   74.752571
H   42.430927    2.240346   16.510744
H   18.249714   32.678539   72.399536
H   23.975216   88.953392   46.150772
H   63.034557   25.803175   19.732592
H   76.883316   11.946519   20.839163
H   13.695489    2.929062   24.967085
H   10.396640   84.746078   29.002003
H    3.418780   13.394272   49.528191
H    1.363856   13.411273   88.898872
