200
TIME:    0.611, STEP:   611
H   20.871218   61.243725   21.683447
H   31.271023   38.294338    4.958467
H   10.361843   85.376762   63.621941
H   30.348387   81.310097   34.798138
H   11.271141   93.132187   48.324413
H   77.549316   42.745472   54.568287
H    8.734351   55.040894   56.832355
H   11.202529    4.906634   11.903515
H    2.495110   81.944283   38.668877
H   97.801331   69.702080   81.438744
H   25.124945    2.519469    4.685616
H   32.311935   51.925365   30.419556
H   20.279911   99.320580   46.086205
H   86.868347   54.772205   60.143276
H    1.709956   74.800568   42.065754
H   18.486443   10.680222   46.319752
H    1.660181   25.094263   97.419319
H   27.752573    1.002108   36.915382
H   77.369255   16.270460   47.945293
H   91.236572   74.609764   23.088924
H   62.537460   95.278252    8.843438
H   81.769615   62.995201   56.277809
H   83.895477   59.843987   40.234268
H   16.466421   91.441635   90.422745
H   19.372078   27.625055   32.172077
H   18.353983   78.801186   94.703293
H    6.080366   66.240990   63.998627
H    3.024715   85.433975    1.707480
H   26.694397   45.252998   36.165951
H   76.284340   30.702957   85.792389
H   12.877122   66.949104   16.648401
H   25.179543   72.201645    2.737300
H   18.159088   16.968582   77.710793
H   84.147820   63.982681   44.774986
H   30.184486   74.470993   31.396923
H   20.942448   41.462986   83.730728
H   96.912827   66.421501   88.740150
H   14.563969   54.352142   98.486610
H   39.339470   33.115639   52.678310
H   86.524803   38.162846   49.204193
H   80.614700   87.892799   13.838655
H   31.805529   35.327244   28.830175
H   70.021866   79.259277   64.104355
H   36.454758   81.252892   32.017036
H   41.453243   87.614342   57.752205
H   35.838924    4.183290   46.722763
H   86.965500    8.035935    4.313216
H   81.083679   65.544945   34.310318
H    1.428217   14.673263   61.433815
H   48.840912   19.475748   90.016945
H   69.382721   65.800308   13.165741
H    6.956096   42.083599   71.518089
H   62.182713   83.810745   12.777675
H   16.884985   90.012878   87.197174
H   61.495255   68.134010   78.774841
H    0.549698   63.210232   90.796753
H    4.371698   18.149391   45.674900
H   71.461960   67.203941   98.607155
H   20.352692   81.644302   16.099537
H   34.522614   93.905922   60.135918
H   49.217968    8.138096   31.397043
H   96.604210   17.303755   51.910187
H   81.668266   32.891914   72.368423
H   33.115105   65.681641   11.950886
H   77.312248   81.609879   33.100452
H   24.186275   30.974766   39.531967
H   72.316994   15.336317   93.500130
H   95.263832   92.293419   94.616714
H   29.719009   10.866780   57.283997
H   43.101349   48.096275   50.962780
H   58.302410   83.008888   83.205093
H   21.713625   14.070105   42.167839
H   89.268692   32.077023   87.072670
H   19.952091    0.809856   71.373390
H   83.662521    6.877205   50.168312
H   62.691223    5.978683   60.453144
H   93.859482   43.761646   66.897820
H   12.813928   12.725647   35.281212
H   14.351158   46.222260   26.721500
H   62.685509   88.597847   76.667206
H   59.114201   23.831772   95.625717
H   42.949844   61.918304   76.388023
H    9.552263   17.735859   79.424728
H   12.575779   73.991142    5.943213
H   25.696835    3.247011   47.268284
H   35.119350   72.793625   20.059788
H   52.483021    3.557191    2.621879
H   72.246239    4.736142   25.435499
H   77.041367   72.960228   78.506897
H   21.585903    2.676544   50.783916
H   25.690897   38.095512   79.104301
H   81.471176   91.790543    6.462959
H   64.883904   12.677904   85.163551
H   43.391571   81.104797   79.291656
H   34.525528   51.907715   83.391510
H   53.908089   36.004093   11.618049
H   84.338234    1.447004   14.307181
H   96.695908   34.203472   52.106228
H   28.611305   66.061577   54.196018
H   73.655151    3.955770   27.340982
H   26.418913   90.684143   86.409676
H    4.367858   82.269463   63.818146
H   30.869879   23.611393   35.687119
H   39.702827   68.624466    4.895402
H   24.846939   22.597187   37.115768
H    2.110716    8.608822   26.521149
H   83.232910   34.703430   54.532623
H   62.565117   48.518894    4.395655
H   82.224976   35.406582   17.072330
H   16.284575   22.887640    7.353034
H   52.075748   92.842834    1.056876
H    0.890849   72.674744   94.737106
H   50.650394   84.579857   85.865601
H   61.967430   11.399046   65.386871
H   51.469627   97.417465   13.764303
H   98.897812   94.944420   95.671165
H   17.321346   13.666761   88.505112
H   38.888828   45.257484   26.562584
H   32.951839   71.642525   65.203644
H   80.573349   54.079464   63.182514
H   44.426704   24.224804   75.362808
H    2.281237   18.691311   59.101177
H   41.180794    6.175311   35.035057
H   98.611290   53.968395    1.618565
H   65.815132   99.766296   80.542892
H   61.314434   72.502853   18.368084
H   86.164848   50.922195   56.726746
H   67.313614   90.479729   38.135944
H   97.033325   39.054337   76.435547
H   85.727394   22.390894   72.822128
H   63.585159   71.938934   17.589344
H   67.459732   89.731033   18.076077
H   91.226295    0.644841    0.134940
H   82.728905   22.515053   54.273289
H   22.753796   94.661850   39.368752
H   52.476784    1.150706   78.215897
H   69.506935   87.509911   73.807709
H   94.382851   52.637108   77.336395
H   56.010544   49.521950   71.462341
H   43.648911   91.296822   85.148788
H   68.984810   52.158482   26.894272
H   40.159027   52.283314   54.895500
H   43.079166   63.589584   86.870583
H   40.713066   13.098138   84.272285
H   57.740681   57.462868   61.200092
H   59.533634   68.367462   12.077671
H   53.505821   95.153084   44.625465
H   32.522064   59.608658   66.696434
H   75.103363   49.302410   94.256310
H   21.288343   92.725250   76.113304
H   63.143383   67.610657   48.543411
H   49.404682   96.844040   36.526028
H   93.410698   17.966282   90.441093
H   19.717104    9.658532   66.784515
H   28.324089   63.676834   67.465027
H   74.515594   44.448818   65.475151
H   63.194714   72.009911   85.148727
H   51.320713   30.707344   18.415907
H   95.401779    0.336425   88.846024
H   59.520248   41.806274   92.478516
H   57.600224   69.336945   73.551575
H   26.184940   21.133680   32.329937
H   81.189064   18.394426   37.077789
H   24.892826   31.078522   55.326092
H   55.401901   34.677036   13.469882
H   18.305685   52.634674   60.273766
H   68.511383   91.566292   56.154686
H   23.956306   47.812283   63.354053
H   99.114090   26.963707   35.980892
H   43.403622    7.659990   86.225525
H   72.277405   10.045869   35.944939
H   33.346413   51.666943   58.597393
H   44.841198   61.512611   79.985123
H   66.657501   65.664017   82.846840
H   54.194427   92.245667   81.787018
H   12.361747   49.664848   23.642681
H   31.606468   64.510719    2.427416
H    5.018104    9.554672   69.624130
H   66.113716   12.754881   64.795677
H   68.652328   58.434792   91.618607
H   74.644417   98.484299   33.093334
H   26.710815   30.558926   83.160133
H   48.553093   89.776512   13.416939
H   59.560314   25.906883   90.838982
H   90.320671   72.242958   76.868362
H    7.027174   39.354309   85.811012
H   44.270416   98.169754    7.485622
H   72.597359   82.939522   38.508305
H   95.874214   62.827835   70.783508
H   56.360081   56.255161   70.390335
H   65.543358   18.749859   76.652107
H   44.611538   95.011459   19.898859
H   12.341217   26.350248   66.305191
H   28.622078   78.337502   40.790062
H   72.162994   37.684143   20.602705
H   76.233902   11.293807   24.483492
H   11.927358   95.675636   15.988935
H   18.127388   90.032715   36.503750
H    6.965940   12.649982   61.424644
H    4.138258   22.423342   92.594444
