100
TIME:    1.739, STEP:  1739
H   99.721344   62.546158   97.553909
H   52.896812   99.030159   87.695885
H    9.646696   99.015221    2.921517
H   81.768494   61.003441   44.843151
H   79.594986   12.146031   18.553169
H    1.049755   99.324104   50.965176
H   61.827763   78.763664   26.444923
H   83.204323   39.047276   48.525360
H   10.880058   19.095764   90.622993
H   27.317022   41.352821   75.788322
H   38.497482   36.214787   72.239517
H   89.466904   10.857651   69.145164
H   32.644920   56.495491   52.285988
H   68.976540   99.715767   89.578377
H    1.652013   14.692839   67.181900
H   31.603561   59.631447   88.689224
H   84.254471   96.999832   31.686823
H   38.306099   10.133116   39.258591
H   72.347389   51.307961   54.978405
H   45.665611   68.882431   34.731819
H   61.081909   83.094482   10.045246
H   29.094608   46.395218   71.183083
H   62.525871   80.479042   82.594879
H   57.469582   57.538303   77.921432
H   67.387321   48.255219   49.392784
H   38.685207   75.790894   26.176184
H   12.122494   70.190689   34.474834
H   85.810104   37.610348   24.254007
H   48.983826    6.867910   74.969048
H   67.674339   47.799820   21.633945
H   84.509071   77.989853   71.802887
H   75.558746    4.467557   38.276115
H   92.850174   41.248360   54.459808
H   51.578377   14.353649   98.490570
H   37.546257   27.465218   30.621376
H   23.754196   21.091078   14.661519
H   46.591476   40.850929   45.491642
H   92.115730   27.125477   45.157246
H   72.542740   43.385475   75.452560
H   99.399437   49.384296   74.855789
H   16.400276   15.852725   83.314621
H   75.329773   89.904625   84.501312
H   26.219862   73.928207   27.083466
H   68.312401   41.916275   50.763775
H    5.810555   63.276310    4.920710
H   55.652027   96.085548   90.232124
H   54.442310   19.549456   42.482857
H   56.332287   13.288015   76.177406
H   15.864049   88.425621   75.105972
H   62.362186   57.218090   62.035458
H   43.411945    1.753919   71.752594
H   89.645576    2.372449   59.901089
H   44.953194   32.092041    1.870699
H   36.421162   78.833916    8.554243
H    2.317495   10.954626   15.162788
H   95.742111   10.704342   33.427139
H    6.497686   39.369041   21.380941
H   96.567719   12.660342   68.762894
H   27.428154   12.245208   77.979965
H   44.262066   61.454380   14.148402
H   69.398117   97.701363   78.809227
H   37.190643   11.758118   16.669434
H   92.187836   88.566216   14.256154
H   62.454659   51.254219   79.927605
H    1.345029   21.952724   57.511631
H   94.515877   55.822182   49.008602
H   48.045609    8.485501   51.021618
H   60.241158   16.992409   49.336857
H   43.574471   24.832870   51.166382
H   65.612854   35.609535   98.071289
H   66.811241   77.079063   41.290867
H   30.578909   93.810898   83.943413
H   93.605148   32.288136   17.157619
H   91.918297   39.332275   99.854622
H   46.015320   31.118090   33.226421
H   66.772774   19.025805   78.916435
H   24.844545   75.822739   21.803270
H   13.681712   37.011642   10.477534
H   44.908424   48.408054   37.080666
H   14.241768   14.243868   71.104805
H   44.912922   47.272411   83.924873
H   71.802887   55.584549   41.363724
H   27.829243   36.282013   95.531128
H   69.798653   60.970074    4.591499
H   67.654556   40.109131   79.175949
H   11.265980   72.932671   62.544701
H   83.298592   76.913452    6.465361
H   83.949631   66.066055   77.666298
H   91.770943   97.347939   13.972164
H   12.587145   37.728630   86.382652
H   95.189552   67.331085   70.186234
H    6.955456   26.294977   66.655251
H   96.862160   79.737473   53.449020
H   15.308252   18.715425   44.070183
H   26.526245   93.960052   56.046715
H   37.555878   27.059492   77.627243
H   24.568581   67.478142   37.177872
H   13.250157   31.044220   28.212177
H   25.870388   44.346439   99.383896
H   47.239151   34.034962   30.195553
