200
TIME:    0.678, STEP:   678
H   22.929953   61.021366   22.829105
H   31.868196   39.272461    7.678495
H    8.957597   88.309341   66.922050
H   32.606827   82.093208   33.046104
H   10.559785   94.830292   47.361115
H   75.369690   40.926987   52.585205
H    9.705062   54.993355   58.129192
H   12.703961    7.799597    9.525363
H    5.215905   80.939835   37.034412
H   95.442795   68.763573   78.795998
H   27.460222    3.950664    6.802880
H   32.588989   53.713692   33.612000
H   21.924343    1.544322   43.340202
H   83.701653   55.054882   63.371822
H   98.475235   75.316338   41.900902
H   16.533520    7.919651   44.874420
H    4.811807   28.232204   94.166237
H   26.161686    4.223178   35.722569
H   79.598465   13.844891   48.931595
H   91.449730   73.689659   20.491673
H   63.341530   98.622833    5.773930
H   80.278023   65.556160   53.695892
H   81.889137   59.356842   38.626640
H   17.885555   92.052483   90.212654
H   22.284210   30.319685   29.781338
H   18.298521   81.774658   92.490440
H    7.377873   67.585365   66.692490
H    4.562451   88.197868    1.883778
H   29.516308   43.216499   35.773628
H   73.256683   32.497837   83.474747
H   12.789648   69.748268   16.730316
H   23.961170   73.771957    4.386928
H   16.540215   18.410208   78.529175
H   81.930367   64.055779   45.946075
H   26.969103   71.702499   30.887159
H   18.753876   39.935356   84.499016
H   98.835846   64.975403   89.243141
H   11.249866   56.085262   95.474289
H   36.859787   30.716534   54.167603
H   85.882263   37.887325   46.587006
H   80.634636   84.762909   16.062561
H   35.140396   33.922295   26.843388
H   68.815506   77.720146   66.592216
H   36.305496   84.506996   34.413143
H   43.742516   89.658508   60.170036
H   34.896072    2.439612   47.451435
H   88.228088    4.753429    5.782093
H   79.452538   65.543922   31.901688
H    4.019367   12.130770   61.482121
H   46.443272   19.778105   87.182510
H   67.788895   64.952278   10.510535
H    4.394945   43.236797   72.958565
H   63.989952   81.895393   13.652733
H   15.887814   91.426773   88.189354
H   58.659286   66.643951   76.607994
H   99.690849   61.559410   92.990692
H    4.180489   18.402931   44.956196
H   72.193954   68.761475   97.397728
H   18.938925   82.938583   17.719944
H   32.973003   93.529701   58.897354
H   49.000977    6.830908   29.439392
H   97.808525   17.462473   52.423912
H   83.514099   34.279739   70.108032
H   34.738579   65.777229   13.446823
H   78.389282   82.608704   35.840321
H   21.557970   33.577690   40.736282
H   69.814308   13.922997   94.884377
H   94.888634   92.445747   95.943199
H   32.102203   11.772189   56.435966
H   42.715672   49.264042   50.959202
H   58.273018   84.167709   84.997253
H   19.830605   12.309062   41.698841
H   91.395157   33.235332   84.829147
H   22.134912   99.337166   73.324013
H   84.478348    7.961779   47.017975
H   64.384727    3.613278   60.015327
H   93.576294   46.255898   65.950111
H   10.332392   13.945681   32.990150
H   14.860538   49.207233   25.237576
H   61.675694   88.224182   73.489777
H   61.957836   22.699404   94.630981
H   45.895969   60.713223   74.316765
H    9.290864   18.470793   77.464394
H   10.390913   76.182014    8.126834
H   23.310951    3.955508   45.369545
H   37.006844   70.449402   18.665062
H   55.485886    3.696804    2.775485
H   71.689064    2.242477   27.962593
H   79.092178   73.123291   78.748169
H   21.250320    5.679856   50.046810
H   22.882404   38.673901   78.806290
H   81.004478   92.378387    7.924871
H   68.066956   11.922268   83.255356
H   40.387173   78.697701   81.131355
H   36.223122   51.001411   86.181984
H   51.133461   37.502075    8.467903
H   85.247093   99.129509   17.192696
H   94.854164   35.244469   52.740589
H   27.093132   65.390411   54.433456
H   74.820107    5.044401   27.357340
H   29.408232   92.536621   89.564613
H    6.859107   83.283112   63.448570
H   32.258728   21.162764   36.623325
H   42.922173   68.748169    7.556167
H   24.758123   21.716698   39.287983
H    4.763334    5.328520   23.384230
H   86.406761   35.535358   54.220810
H   62.170238   51.091354    1.804875
H   83.927681   34.560852   20.312122
H   18.436853   21.953478    7.680949
H   52.957260   92.260612    1.104016
H    3.580958   74.359558   95.500282
H   49.486717   85.357346   84.408257
H   61.740471    9.954609   63.659172
H   49.233772    0.207423   11.415032
H   96.163567   92.984596   98.693710
H   14.566621   14.610188   89.286179
H   38.548901   48.555294   25.223320
H   35.496185   74.157990   61.892452
H   82.341484   55.416683   65.682053
H   45.125984   24.670033   73.167336
H   99.390396   17.104130   61.071991
H   42.796089    3.349506   37.022739
H   97.624222   51.557465   98.684502
H   63.810326   98.107552   78.326973
H   63.769070   74.335907   17.074442
H   84.499458   51.235031   54.139206
H   65.848091   91.005211   38.701809
H   97.857841   36.629093   74.908684
H   88.974854   22.073330   73.963570
H   66.289757   69.546661   20.149792
H   64.888039   90.395554   19.656101
H   91.007515    3.904441    0.633494
H   79.443619   24.232838   55.097805
H   26.063618   93.450378   36.289978
H   50.692291    1.064718   77.228828
H   69.617859   87.680641   77.143089
H   94.954338   50.545147   76.277763
H   57.761810   50.458923   71.446495
H   43.685204   88.083611   83.287109
H   72.301788   50.188179   29.058563
H   37.074631   54.319046   56.457378
H   40.925354   64.822609   84.610703
H   37.642982   10.672831   85.382545
H   60.889996   55.240814   63.390965
H   61.988525   69.521683    8.868805
H   55.090446   94.859673   44.145733
H   30.692589   57.114662   66.312035
H   76.894501   46.505035   93.590256
H   23.424137   93.456734   73.606018
H   60.782036   68.748520   48.037609
H   52.225060   94.990028   34.426399
H   96.523209   15.461040   88.089203
H   21.488178   11.196449   65.128838
H   30.980892   65.446457   68.677010
H   76.504555   44.614948   67.536697
H   63.896038   74.019318   85.942062
H   52.273277   29.632355   19.985580
H   92.335274    0.083974   86.361229
H   58.769085   39.072540   95.049698
H   58.258354   66.614967   71.770149
H   23.039076   20.786469   31.749504
H   84.073082   15.473221   37.049931
H   27.352190   33.046780   52.459709
H   54.760384   36.950462   14.128204
H   19.460033   50.502842   59.907513
H   67.357674   90.482613   56.864956
H   24.014835   50.860641   66.124588
H    0.024486   26.745821   35.822685
H   46.461182    7.154380   85.471039
H   70.997437   10.842654   35.939316
H   31.031782   49.178314   58.803139
H   46.135735   58.633450   78.099930
H   65.832474   64.061501   84.401306
H   51.080383   91.741653   78.636681
H   14.430322   50.026756   23.706961
H   30.918179   66.603958    5.229911
H    5.611923    9.618568   70.480850
H   64.400276   11.197284   64.012054
H   65.465187   59.153496   92.563759
H   73.421188    0.885314   31.535583
H   28.062220   30.640713   85.606079
H   45.467930   89.705460   14.744446
H   61.019447   26.030842   93.303841
H   91.187103   69.336960   76.592331
H    8.429781   39.919662   86.146339
H   46.603394   97.022179    8.970186
H   69.378525   85.777534   40.852783
H   93.933815   63.126614   71.549240
H   57.578453   55.890697   71.236832
H   68.743790   16.533173   76.173653
H   44.062286   96.832245   19.045462
H   13.829423   27.944202   67.840233
H   27.451628   81.011429   42.140316
H   69.863754   34.691502   20.383541
H   76.397476   11.458212   23.565559
H   12.372714   97.502556   18.250349
H   16.180216   88.701118   34.614212
H    6.072480   12.837454   58.428169
H    3.439445   20.153366   91.663605
