100
TIME:    1.520, STEP:  1520
H   14.531134   82.629623   97.754410
H   58.988686   87.157188   73.881401
H    5.882182   83.259224    5.492518
H   81.731735   70.025963   56.848118
H   81.556549   94.592232   24.490746
H    4.445864   99.561363   29.276140
H   73.306099   63.976749    9.318840
H    0.417292   20.101650   68.633507
H   16.263496   40.151657    4.407800
H   33.301308   38.208305   67.213585
H   58.868332   27.402790   93.335510
H   97.824432   99.880653   84.734077
H   46.574692   69.745232   74.052757
H   79.820274    0.390881   72.913445
H   98.988258   34.254101   77.708176
H   40.408875   78.786308    6.867858
H    1.861768   82.517014   11.747973
H   33.626083   20.783264   46.850876
H   68.935539   42.120026   43.441273
H   51.565338   73.534042   19.821268
H   74.077682    4.895919   15.989250
H    8.095366   46.106163   89.829628
H   65.449837   82.260155   88.860519
H   77.817039   54.911747   94.185364
H   75.220207   65.623726   47.777084
H   39.689381   82.317184   46.702660
H   31.007133   79.293411   30.128988
H    4.289227   27.388165   17.015104
H   44.221939   86.998474   85.321556
H   59.276714   53.220016    4.224609
H   75.894234   58.350830   89.132812
H   61.730900   10.517955   58.550056
H   77.425003   57.271690   34.730560
H   42.325279   34.423714    7.716453
H   42.989845   44.019875   17.286423
H    4.712499    3.887251   15.414231
H   25.587124   48.870949   28.235235
H    1.168159   31.133816   29.703671
H   82.387314   48.060478   96.441620
H   20.026766   69.886665   57.625492
H   31.365967    8.338134   78.155075
H   95.012238   80.076759   74.212296
H   24.333487   72.614929   11.264937
H   82.297310   38.245445   29.351889
H   24.807140   71.917740   86.180374
H   58.477413   91.908455   89.343239
H   52.129871    7.735253   40.611519
H   56.320591   11.033220   62.626919
H    9.463071    6.563673   83.841110
H   57.769054   53.884769   77.353477
H   43.428654   22.897520   69.443497
H   79.002342   22.694067   74.277451
H   40.410187   30.822205   14.589966
H   41.492153   82.406166   98.890823
H   19.752365   91.756149   13.304399
H   95.468094   10.934500   40.882416
H   92.613617   45.688148    0.551987
H   12.874775   33.342789   74.403641
H   10.156708    2.991681   94.791931
H   58.713139   44.620693   20.377159
H   55.583630    7.885814   95.885185
H   44.963379   13.796957   26.579170
H   77.334091    3.500307   29.280373
H   47.415451   50.062912   85.872444
H   92.653191   39.444241   37.115719
H    7.969312   66.709358   36.059612
H   65.616135    0.914331   40.448559
H   75.368919    4.467036   38.867390
H   32.658890   40.568817   64.902229
H   61.176170   24.594267   98.532440
H   73.765266   91.979591   43.917423
H   48.635715    1.079105   67.910057
H    7.884501   43.120174   22.773304
H   96.736992   53.191872   12.870476
H   35.457298   30.806479   16.624207
H   61.595745    4.989890   93.653221
H    4.960713   94.803452   17.929434
H    3.392695   51.332390   98.382828
H   34.410553   49.049656   34.637901
H   24.981979   26.171141   89.971901
H   40.627224   45.006756   70.835533
H   55.370998   54.154312   59.676102
H   13.973048   32.626221   74.672394
H   54.733356   42.229961   24.594765
H   78.317841   53.808327    0.405604
H   16.306896   64.889259   47.336739
H   68.672081   92.836533   96.022461
H   80.424164   83.599823   79.943123
H   87.226265    9.541348   15.763720
H   31.949718   46.739456   78.553108
H   86.227180   55.506100   65.561356
H   90.751564    9.824697   62.482109
H   82.810417   73.174423   36.506729
H   94.141121    5.431392   29.304840
H   30.313198   13.576759   51.014153
H   19.467392   35.707268   88.938812
H   41.951614   54.910107   49.772644
H   12.446067   29.179565   31.716759
H   36.302605   43.402416   17.728161
H   33.638535   39.660671   51.288277
