200
TIME:    0.066, STEP:    66
H    4.124484   63.052464   12.364285
H   26.413416   30.337749   82.833473
H   21.784706   61.522202   36.777763
H   11.977328   74.940010   49.049751
H   17.057640   79.319244   56.160202
H   95.279114   57.537628   70.700188
H    0.838323   55.427589   46.283459
H   98.989464   81.372650   31.248592
H   80.362114   90.114792   51.964146
H   16.986355   77.336205    2.935522
H    6.128760   90.877144   87.463104
H   30.058289   37.378532    4.451485
H    6.903560   81.233192   68.423088
H   12.628300   52.472820   33.881222
H   28.022715   70.605125   43.406715
H   34.372158   33.135609   58.076553
H   76.021957   99.569260   23.880020
H   40.694069   74.802368   46.618122
H   59.236134   36.001095   39.922394
H   89.502678   82.094200   44.215824
H   55.996895   68.072327   33.812199
H   93.902718   42.163521   77.279968
H    0.215723   63.806580   53.311241
H    4.950088   86.517525   92.139946
H   95.683571    5.705809   51.619137
H   18.805128   54.614788   12.703360
H   95.526527   55.305393   42.085861
H   90.517120   62.951462    0.273435
H    3.740097   61.818550   39.357231
H    0.912347   16.103109    4.644665
H   13.588663   44.179783   15.982079
H   35.090183   59.428207   89.319237
H   31.327538    5.241449   71.053802
H    2.185562   63.388084   35.248962
H   56.338505   96.990829   35.542622
H   38.745010   53.889229   77.481224
H   81.270355   78.184540   84.648659
H   41.521847   40.254375   22.990818
H   59.510025   52.631306   40.563919
H   91.751434   40.404018   70.493256
H   80.453445   13.354093   95.748680
H    4.678638   46.755562   44.990524
H   79.834793   91.779076   43.867268
H   37.668900   54.783661   12.525279
H   22.832064   70.986420   38.084770
H   43.508392   18.366901   40.795506
H   76.695190   34.736816   92.363731
H   94.351921   65.553261   53.902908
H   80.351196   35.355221   61.040882
H   68.343643   17.016279   13.073967
H   82.347427   72.698463   34.764507
H   27.789629   32.703106   59.800041
H   47.484665   99.401741    5.651786
H   24.996243   78.511795   79.126457
H   84.563950   80.254639   96.400688
H    7.536211   76.636604   72.950531
H    5.927057   16.087013   51.521076
H   65.507675   54.534458    8.443936
H   31.852736   71.116196    2.918098
H   47.127651   96.966225   70.210800
H   50.983047   18.771193   47.320221
H   86.810394   16.012690   47.732693
H   66.653656   21.601934   90.755188
H   19.910183   64.904091   99.782646
H   68.551300   73.485107   10.814335
H   45.565117    9.801241   29.735672
H   92.674660   26.832233   82.240211
H   98.315819   91.054329   83.826653
H   10.333433    3.501887   64.182152
H   46.238575   38.597279   50.991886
H   58.541496   73.582657   68.627075
H   37.030392   28.395452   45.982822
H   71.971329   22.654949    5.321917
H    2.196697   12.789262   55.507496
H   77.026321   98.054695   75.794189
H   48.915703   25.219677   64.014481
H   96.163025   23.472589   74.606789
H   32.999943    2.801477   53.917458
H   10.207691   21.941072   38.792233
H   70.897934   91.637360    2.513519
H   35.983135   33.042709    3.716385
H   18.985661   71.719200   93.236320
H   11.678571   11.757667   95.370735
H   30.348196   56.169868   88.180389
H   45.104393   97.483917   62.713249
H   19.765034   91.862305   31.404945
H   28.056734    2.421532    1.372426
H   76.778481   25.020292    4.879328
H   60.365471   71.617897   76.533104
H   24.315643   78.248009   56.779781
H   48.536514   33.390713   81.528427
H   85.267448   87.008820   94.571152
H   38.993923   18.824497    0.685409
H   67.830658    0.684915   64.326942
H   20.715893   59.279884   60.692879
H   76.477821   23.819016   37.242611
H   76.945274   20.297461   90.835403
H   11.678061   25.734894   46.946125
H   40.960625   71.521057   52.264618
H   64.179024   95.099777   27.207926
H    2.103055   75.615479   60.746109
H   84.101997   74.024109   66.824394
H   19.572538   43.528748   28.071167
H   13.514883   67.618225   83.252655
H   25.569395   29.759377   19.446262
H   80.534630   35.292004   52.037064
H   57.415768   27.936251   57.069016
H   65.776039   27.593658   25.469782
H   68.374611   42.286026   90.718803
H   98.777405   30.486422    4.685664
H   44.905243   97.578819    0.673429
H   79.007248   58.969147   88.529182
H   60.116127   78.255508   97.720116
H   63.813591   23.148571   79.440979
H   69.656807   74.722992   32.873631
H   21.139416   10.887667   71.084793
H   39.728916    5.992548   82.151657
H   41.653912   18.432018   37.456596
H   12.254306   51.180912   92.139297
H   66.190758   43.202084   42.851875
H   38.738533   20.603168   93.221504
H   25.796856   31.601963   43.069931
H   28.041449   29.161068   18.867441
H    6.640908   73.580711   25.484806
H   82.121819   13.258005   98.568008
H   41.347622   57.591297   28.890993
H   99.711678   48.377487   77.774643
H   79.234657   86.205284   33.533016
H   90.326439   58.782063   88.855553
H   59.311493   24.974064   63.537270
H   41.585075   91.398468   96.761841
H   88.378731   84.325607    5.223694
H   93.005928   74.129173   96.080826
H    9.452685    8.541677   47.565147
H   95.830383    4.516278   64.412506
H   66.992432    1.850163   86.245033
H   68.604645   86.121132   46.676628
H   89.734184   69.653114   85.947655
H   41.765167   41.900299   71.591240
H   43.353691   17.435213    0.292338
H   42.003414   68.186111    9.289412
H   65.248520   35.723999   42.190670
H   60.598984   53.558361    5.253061
H   65.686134   32.826378   75.241066
H   32.123119   75.537781   43.378819
H   39.564743   58.977539   38.179642
H   40.615959   97.539787   48.527767
H   47.403618   79.895638   69.823265
H   60.533665   72.056442   99.674210
H    3.888035   86.731537   96.500175
H   82.353340   58.354900   52.657772
H   26.463057   11.924250   53.605095
H   68.092514   38.344738    9.573097
H    5.310219   97.148407   80.252342
H    6.712765   49.283848   57.605011
H   58.336739   43.097462   48.707756
H   57.489910   55.665791   78.695480
H   43.572243   39.451660    5.647619
H   20.345488    2.389958    9.057536
H   65.629906   64.043365   71.563675
H   52.246773   91.478401   88.042274
H   51.773632   23.958015   37.051369
H   57.729519   42.156029   37.304401
H    4.887840   15.068035   78.643494
H   60.620216   16.184240    8.114872
H    8.915835   69.974983   63.252987
H   77.896034    0.381226   50.377117
H   23.480213   23.015930   40.817585
H   91.708656   28.736063   37.267799
H   18.532425   11.772792   92.362762
H   82.689087    3.564556   35.990677
H   52.173927   71.909454   56.923790
H   34.311012   84.930801   95.319901
H   73.364281   78.715332   70.213638
H   79.525085   96.345474    7.412362
H   95.534973   46.720970   23.119810
H   37.205242   47.485641   79.629204
H    0.187881    9.034920   62.655285
H   80.051399   25.424501   71.169922
H   94.577583   52.588615   83.930428
H   84.594559   78.954079   45.764900
H   15.718063   29.893642   63.264011
H   73.645370   90.346298    2.626224
H   47.692192   24.898085   70.789009
H   83.272827   95.881302   79.113693
H   95.617729   34.755539   83.083351
H   25.293581    7.505086   95.410049
H   98.780411   59.854565   19.438232
H   11.657291   60.397472   64.554794
H   46.449440   59.219830   63.504658
H   39.508038   36.781113   80.544014
H   49.079330   80.200592   26.840673
H    0.235528   13.384501   53.820351
H   38.143574   56.586189   29.806444
H   90.865768   62.027271   22.385456
H   74.903336    9.956484   31.950256
H    8.304683   80.814873   97.593826
H   33.966454    0.864225   51.873871
H   14.233640   11.125029   85.798958
H    9.822615   40.887569    0.166226
