100
TIME:    6.354, STEP:  6354
H   87.627518   39.327934   93.328751
H   24.992981   49.178799   78.746132
H   88.985138   31.035641   48.757771
H   82.543106   70.865387   91.878174
H   38.258850   82.058548   93.422974
H   29.486446   94.324333    8.003826
H   19.957508   90.389778   87.344154
H   20.474426   38.303417   24.790432
H   97.434425   75.382156    0.124442
H    1.209184    7.617932   56.502537
H    9.221420   21.909292   27.700390
H   13.325310   42.183689   40.643974
H   38.604904   77.351341   93.656181
H   40.468361   85.491066   40.782711
H   57.781685    2.462228   45.338207
H   46.043732   55.984962    5.603216
H   13.156312    2.239465   51.818031
H   36.944462   85.653534   79.262245
H   44.231213   44.912407   98.116669
H   21.330132   70.876015   48.942467
H   87.221359   23.656391   84.784233
H   71.544510   52.519012   78.176498
H    0.907232   42.945549   50.555466
H   28.679417   12.840548   35.169933
H    2.329516   82.255997   83.465614
H   17.581205   38.819641   92.915810
H   14.165997   78.349686   26.040144
H   96.410141   53.022942   76.803513
H   49.332664   25.576424   56.814911
H   44.633198   33.578484   88.513687
H   66.127419   91.831230    6.670693
H   66.952698   76.956116   11.042412
H   17.924000    3.593900   70.215454
H   46.573799   91.416611    4.068047
H   22.822784   78.583107   11.632714
H   24.979826   83.101082   99.449287
H   89.230293   71.838013    9.135640
H    1.371315   42.672909   70.824745
H   76.868835   42.972893   28.562185
H   64.716675   17.342857   37.953876
H    1.001283   74.202797   92.043190
H   64.733459   66.520355    4.343366
H   65.969818    1.603574   60.429108
H   73.618454   19.294455    1.996683
H    5.493702   81.195114   99.838730
H   96.106895   84.109665    8.975035
H   91.375290   70.390030   86.457146
H   56.578754   60.814117   61.727436
H   50.761887    6.212397   91.010086
H   59.144100   27.444235   39.260201
H   43.065296   56.205933   20.407852
H   13.926546   74.136246   56.935646
H   40.673801   58.851379   33.838039
H   29.547997    3.528855   12.201068
H   34.880455   15.438857   54.393360
H    1.509659    5.849932   76.321640
H   99.068840    6.204484   60.305733
H   52.923492   76.830513   49.891464
H   91.403687    7.241389   23.686211
H   39.719986   16.177197   82.887718
H   60.515919   83.080948   18.988590
H   73.402046   68.799942    7.854490
H    5.433026   73.697426   97.757599
H   79.358017   76.376038   54.631031
H   84.524292   53.361454   87.289085
H   11.010757   26.396782   21.881910
H   77.775009   68.034332   73.833145
H   41.451607   80.929054   69.960541
H   73.585670   93.228424   61.722317
H   59.113373   67.731377   88.353424
H   20.264359   63.074997   85.928413
H   50.050259   40.648193   21.831562
H   92.698074    4.012833   98.829163
H   90.333702   47.274075   25.620062
H   68.521355   37.699932   83.074112
H   75.871895   14.804150   68.384705
H   43.861904   75.846336    3.430672
H   30.502804   35.247612   65.349007
H   66.208611   34.855022   88.572929
H   87.919235   62.887245   73.518425
H   35.210457   95.016708   59.752628
H   18.096407   85.677475   55.428127
H   19.779266   13.379607   35.066391
H   87.294548   55.884789   83.077263
H   42.942528   51.439697   31.803253
H    5.050831   42.447456   83.024170
H   91.524010   41.365227   26.526709
H   58.218803   96.619995   29.696716
H   87.546005   40.391228   76.223274
H    4.559253   47.856304   51.355972
H   84.054497   16.529976   67.646652
H   48.430553   73.360947   54.592812
H   92.757233   18.170284   10.369151
H   61.355869   98.663033   55.239441
H   46.735725   80.577194   62.094212
H   18.735977   44.818634   39.256699
H   58.251610   32.322540   71.764923
H   26.012636    0.855529   51.323814
H    6.023248   64.240318   12.822525
H   33.882381   15.581364   85.639519
