100
TIME:    2.418, STEP:  2418
H   53.802643    0.278491   96.932266
H   34.009224   35.844719   30.526632
H   21.318045   47.864334   94.952736
H   81.882462   33.029503    7.623685
H   73.513245   66.570877    0.143649
H   90.522957   98.588493   18.208239
H   26.243458   24.612274   79.543602
H   29.836266   97.790344   86.181221
H   94.188881   53.812576   47.883076
H    8.763567   51.102257    2.374342
H   75.338562   63.535999    6.835836
H   63.554657   44.892410   20.813017
H   89.453453   15.415226   84.799309
H   35.356010   97.622902   41.251392
H    9.911690   54.041595   34.540962
H    4.301369    0.241856   32.326920
H   29.663849   41.903206   93.506531
H   52.816284   77.113228   15.717247
H   82.925682   79.791885   90.752655
H   27.373764   54.463741   80.961342
H   20.789078   15.497440   91.614960
H   94.196365   47.293915   13.363205
H   53.460243   74.956779   63.168533
H   94.383087   65.681824   27.492065
H   43.101799   94.404846   54.402191
H   35.571812   55.558575   62.531746
H   53.572601   41.964046   47.948948
H   28.518389   69.303780   46.698757
H   63.747849   68.471870   42.871544
H   93.710823   30.994736   75.612785
H   11.220273   38.881130   18.075962
H   18.431007   85.705376   75.417702
H   40.678349   91.570290   15.629491
H   80.267204   52.127457   69.884628
H   20.666908   76.137817   71.966820
H   82.789932   74.431694   12.327767
H   11.717015   15.983538   98.994385
H   64.048546   14.697796   93.073524
H   43.009079   28.731531    9.990255
H   35.445042   85.818245   28.277025
H   69.996452   39.150593   99.311569
H   14.305145   20.378448   16.401155
H   32.068485   77.999969   76.127464
H   24.953218   53.297523   17.153551
H   46.911655   36.488674   63.025856
H   46.892040    9.036427   92.988075
H   60.621998   56.336945   48.668114
H   56.368549   20.278910   18.190025
H   35.710007   32.190578   48.019997
H   76.598412   67.551125   14.547108
H   43.360142   36.201591   78.911850
H   22.642691   39.366779   15.324100
H   59.038589   36.029114   62.437469
H   20.698772   67.758308   38.515411
H   48.263931   70.480652   20.923536
H   96.591690    9.990747   10.312378
H   49.541576   19.776924   85.959297
H   46.007416   48.537521   51.274002
H   80.979164   40.935650   25.851709
H   99.456711   13.642920   94.836922
H   12.229700   66.121895   25.869694
H   13.093647    5.436785   85.947601
H   38.244152   42.264168   67.673996
H    9.078657   54.947815   61.495182
H   28.295975   67.723389   20.744471
H   52.803627   22.066963   89.156380
H   93.567451   31.959883   83.802933
H   13.338114   55.825378   81.796982
H   77.415703   76.044273    8.578877
H   79.371887   69.762764   96.641510
H   45.250587   30.879370   33.144848
H   74.591370   71.276337   33.656052
H   49.333801   98.703667   99.746574
H   76.978142   96.363205   59.499626
H   78.752342   32.084454   84.698471
H   82.821526   62.545227   33.229160
H   86.493805   16.970381   33.813541
H   45.582363   92.613426   47.977962
H   77.463776   46.416302   44.656876
H   80.942024   77.265442   12.608268
H   58.200542   54.296978   24.506721
H   22.748444   60.018936   84.585548
H   70.789139   47.616638   60.202427
H   16.506260   19.072969   42.572235
H   34.593506   97.636108   13.354362
H   95.638611   97.870918    9.696509
H   28.647482   27.544632   38.842957
H   94.880188   11.703472   70.600288
H    5.862330   59.541679    8.417524
H   52.555363    9.790955   10.656272
H   22.977173    3.997348   84.525467
H   57.197895   77.357719   79.595787
H   40.427097    0.085911    5.978008
H   80.936867   59.903622   89.851936
H   14.784962   33.140007   71.649956
H   93.638443    0.247794   42.556213
H   70.672928    6.444619   98.127892
H   15.743205   36.825500   17.346375
H   93.525658   47.273342   42.505516
H   89.407272   16.594982   64.797760
