100
TIME:    5.011, STEP:  5011
H   78.449135   62.487099   94.558304
H   62.083534   76.403244   94.065002
H   65.890030   34.414871   64.526451
H   82.317688   26.197697   65.494637
H   50.287979   74.411255   29.835114
H   50.317127   95.779305   75.002831
H   90.343895   99.703339   82.319733
H   26.031578   22.117420   48.101055
H   30.447990    4.506119   84.662514
H   37.902016   88.333900    3.913388
H   34.144012   67.871033   57.063908
H   64.587318   74.866249   36.240105
H   24.304733   58.565361   27.103760
H    6.966403   89.630562   38.579735
H   41.452751   22.424635    9.897413
H    0.041619   73.448624   17.084213
H   21.152443   13.410199   29.559446
H    8.224843   50.998783   25.818502
H   23.316433   88.570389   27.361185
H   57.509735   99.401649   57.504799
H   66.916878   57.357246   21.237484
H   42.789795   50.736160   92.545364
H   18.839958   53.868080   88.979004
H   53.464436   96.774384   34.912415
H   50.361603   88.761963   73.547218
H   23.703356   78.520218   19.206598
H   29.974379   34.175327   99.390968
H    9.728593   90.336258   32.409348
H   20.130775    3.729391   20.299355
H   93.137848   66.817406   81.748940
H   13.268971   71.400909   12.924568
H   82.154884   14.064937   35.370659
H   23.325035    1.854193   49.227409
H   89.827744   14.494386   60.645546
H   56.211639   80.126846   29.863152
H    8.235620   77.911537    3.672697
H   60.418282   21.022278    3.312602
H   56.876553   67.252373   76.053276
H   33.556721   72.236259   58.709061
H   91.213295   43.070412   32.289059
H   92.785797   28.123022   60.402691
H   81.260338   36.754051   38.219433
H   54.403515   93.549423   63.422432
H   59.373081   96.752258   70.684494
H   21.988920   34.182983   84.915062
H   13.438574   58.493977    3.518092
H   80.883102   97.352440   73.567329
H   56.507030   46.981644   78.630226
H   11.508400   17.439137   44.583809
H   30.973408    7.001974   33.188156
H   43.162312   85.863525    6.250857
H   48.657280   98.755630   45.099762
H   12.814467   51.064209   11.837465
H   60.645447   25.444183   52.937645
H   41.812042   97.744148   42.968761
H   99.836105    7.262637   22.040543
H   13.928245   44.956551   32.575340
H   52.925919    3.660261   84.482895
H   85.483681   50.496353   26.785461
H   28.344654   12.949613   21.085823
H   75.798248   45.536747   23.699203
H   21.065622   81.300400   68.624039
H   14.256707   65.341476   89.851135
H   87.136086   69.060196   91.089920
H   31.216932   60.624859   62.221714
H   93.512474   93.161522   42.472755
H   85.526306   21.606415    8.992886
H   34.221840    4.121165    5.757377
H    6.648547   89.727837   45.952118
H   31.909491    0.180191   91.181396
H   62.910774   54.451736    2.036083
H   60.786278   85.219498   23.503349
H   80.264542   70.440437   33.266479
H   19.897648   32.273098    5.417389
H    3.772584   35.783878   81.265594
H   44.122513   28.730429   58.751652
H   21.920923   92.226021   79.670586
H   67.406219   23.062996   91.178062
H    1.809944   38.799839   73.592873
H   53.776306   36.043575   89.219177
H    8.929447   81.122757   79.484856
H   17.306358   76.953201   67.760765
H   34.831848   90.920959    7.165488
H   94.898941   40.961472    5.740196
H    8.334718   35.444077   61.992149
H   35.963726   93.116386   89.762146
H    1.828084   39.012405   62.487350
H   36.614777    4.102173   43.631195
H   59.676132   15.168003   87.207283
H   23.298635    3.107803    3.349659
H   29.093468   44.010929   39.284954
H   49.062153   72.354462   29.007856
H    6.668274   77.877357    6.512897
H   31.559990   17.186449   64.683189
H   69.953789    0.873929   31.232552
H    7.809689   97.853363    8.624308
H   64.852715   55.251644   49.001892
H   25.258970   58.903351   75.847618
H   70.000641   58.450748   25.313103
H   50.462551   50.042034   15.014718
