100
TIME:    5.676, STEP:  5676
H   33.477211    1.504095   93.949478
H   43.717293   12.437028   35.995304
H   77.325806   82.258423   56.718601
H   82.429306   98.798126   29.041611
H   44.331635   27.713854   11.805967
H   40.002605   95.058861   40.859692
H   55.489864   44.608929   34.323673
H   73.763885   79.647751   87.042320
H   14.101021   40.569199   42.803177
H   19.730284   97.882317   29.955809
H   72.287338   94.628922   93.008568
H   39.204475    8.199154   88.905540
H   81.869614   18.351562   61.025810
H   74.039375   87.580849   89.185844
H   49.539986   63.024246   77.933014
H   73.304016   15.285460   61.883514
H   67.676949   57.392857   90.097015
H   22.445303   18.643723    2.766840
H   33.673672   16.467569   62.394032
H   39.595039   85.276894    2.781104
H   27.454826   91.153259    3.188339
H    6.543991   51.618958   35.914429
H    9.960387   48.459679   69.953201
H   91.675682    4.729708   85.524246
H   26.577393   36.024818   78.458412
H   20.671911   58.863968   56.671494
H   72.631805    6.531505   12.586203
H   53.616764   21.376183   54.393028
H   34.590385   64.063080   88.865143
H   18.636391   50.358818   34.613846
H   39.441719   31.033730   60.311882
H   24.143192   95.691742   73.808311
H   70.167961   53.198952    9.135861
H   17.925953   53.551170   32.629417
H   39.682022   29.858030   70.355927
H   66.042572   29.997742    1.581254
H   24.201595   96.667114   55.711895
H   29.393147   55.082287   22.981434
H    5.485202   57.746208   94.266060
H   28.578012   80.815453   84.610558
H   47.336960   50.938766   76.069801
H   21.871777   63.861839   69.727837
H   60.131550   97.537231   11.457913
H   16.912563    7.914445   35.705292
H   64.303658    7.947280   41.821392
H    4.857470   71.177841    6.220557
H   86.078415   33.518814   79.949852
H   56.542545   53.830933   19.776602
H   30.945160   62.362396   18.055565
H   44.920589   17.123701   86.677414
H   43.111851   21.662447   13.261231
H   80.975777   37.048931    1.441966
H   26.609150   54.920105   73.216820
H   45.247231   14.592031   82.283043
H   88.863060   56.023182   48.625767
H    0.665178    6.563122   99.402359
H   56.084412   25.768394   95.822182
H    3.409238   40.859779   67.354599
H   37.930534   78.593834   75.734215
H   84.461288   64.065598    2.171638
H   17.746929   14.612106   71.849480
H   97.465584   75.110672   38.533607
H   59.405209   19.962996   44.250092
H   32.799988   72.682709   73.038239
H   57.614525    7.511056   24.150423
H   52.660271   60.102287   81.792747
H   32.172882   44.595806   41.100113
H   88.285500   42.154270   37.548222
H   39.793697   41.945168    4.242843
H   45.379776   33.628136   89.781097
H   41.794670    9.205650   94.059944
H    5.955455   63.149567   72.192886
H   36.906006   37.547638   16.214287
H    5.260464   90.185020   65.904869
H   35.834164   36.732632   31.677856
H   59.845436   71.352226   14.007074
H   82.299248   34.587933   91.431068
H   98.649124   79.581261   27.903803
H   33.697651   36.846523   81.010399
H   21.168255   99.820534   31.928677
H   21.942408   88.002487   19.230280
H   67.210281   81.280518   12.143302
H   76.895073    2.041994   70.497879
H   40.649460   97.866379   45.001682
H   75.954887   93.847267   97.527954
H   20.656834   17.542267   35.941986
H   46.241936   90.661339   94.197021
H   47.314690   50.874905   36.726456
H   73.476181   78.141808   81.768440
H   64.505035   75.750656   27.121214
H   56.307976   79.918671   53.328533
H   98.265419   22.368670   41.676506
H   49.295959   97.826546   57.938374
H   95.831551   57.529491    9.523044
H   58.457130   41.308483   46.513950
H   62.735916   71.592682   74.276077
H   12.068392   93.414864   10.757318
H   27.321337   67.305283   64.933617
H   38.321411   61.317303   69.613411
H   91.769714   32.979694   50.954182
