100
TIME:    2.392, STEP:  2392
H   55.560944    2.662804   96.956070
H   34.732460   34.434944   28.886557
H   20.871130   45.993759   95.257820
H   81.878098   34.100670    9.048876
H   73.746124   64.486862    0.848585
H   90.926033   98.616661   15.633364
H   27.606121   22.856552   77.510368
H   31.879814   95.540894   88.568336
H   94.828011   56.312363   49.519779
H    9.474009   50.728935    1.356154
H   77.757019   62.489826    9.340284
H   64.546967   43.589157   22.663656
H   91.107414   16.988274   87.383598
H   36.643394   97.703041   39.272709
H    9.595398   56.364044   35.790855
H    5.346823    2.515948   34.485123
H   31.754211   40.183784   91.139252
H   52.260666   78.377602   16.618713
H   82.520622   78.701279   89.382751
H   28.074188   55.015789   79.191139
H   22.331955   18.085896   92.320740
H   91.703720   47.259399   15.577347
H   53.807381   75.168236   63.912399
H   96.798767   65.369995   29.423141
H   44.031731   96.467041   54.210373
H   35.691029   56.333187   64.968727
H   55.814713   43.044933   47.433002
H   30.712198   68.090187   45.839245
H   63.182510   66.112923   44.100609
H   92.713844   31.638229   73.545830
H   10.197408   36.549557   20.133297
H   16.789345   86.423851   77.824654
H   38.846851   93.472603   13.287206
H   79.168663   54.510208   70.979996
H   21.313278   78.103210   70.383476
H   80.529373   72.389336   12.417130
H    9.223279   16.935785   96.945679
H   65.123283   15.173672   91.238655
H   44.106628   29.297960   12.509779
H   37.893848   88.252174   26.231394
H   71.773399   38.258549   98.699020
H   16.641876   19.211472   15.179695
H   31.844534   77.844055   74.249352
H   26.613428   52.861717   14.611415
H   49.166859   37.514416   60.801003
H   47.227474    8.540516   92.882545
H   60.418674   54.923004   48.418373
H   56.367161   20.011217   16.581291
H   34.950073   34.343822   49.057243
H   76.053307   67.155586   16.365513
H   43.362125   38.711693   78.637711
H   21.379210   41.779484   17.031025
H   58.499237   35.878357   63.947617
H   21.300808   68.182411   37.368073
H   50.333862   68.201447   20.702955
H   96.559158   10.018072   11.197479
H   47.893368   20.527138   83.486488
H   47.943451   50.992874   51.943680
H   78.928474   39.837109   27.847750
H    1.172446   11.644400   95.576424
H   10.589575   67.331123   27.896778
H   14.016338    5.678839   87.123901
H   36.480495   44.037148   69.457687
H    7.293270   54.806381   62.201160
H   27.263985   69.799866   18.323137
H   54.400856   23.359505   87.619057
H   95.653450   31.060995   82.547684
H   15.134153   54.338440   80.554031
H   76.119987   77.912468   10.209580
H   78.845032   68.455147   96.696259
H   46.076180   32.648445   33.456875
H   76.735291   72.139221   31.752363
H   51.029022   99.989861    0.413202
H   77.550224   98.008438   61.044884
H   77.498680   32.047359   82.727524
H   82.206993   60.878769   34.978535
H   84.133270   19.223898   33.353733
H   44.360836   94.313408   46.542004
H   76.216858   46.492672   44.366669
H   82.217110   78.681366   14.848147
H   57.691738   54.027996   22.952835
H   20.797531   59.849136   86.759621
H   69.144302   47.182617   57.726048
H   14.717645   16.848116   44.947052
H   35.859467   99.262299   15.874728
H   96.236877   96.915993    7.890950
H   26.911001   29.435043   37.603180
H   94.461639   13.785057   70.870857
H    5.322705   60.989342    8.630220
H   54.854206   10.860733    9.726886
H   21.913147    2.593437   83.976395
H   55.273960   75.402641   79.100273
H   38.758854   99.306747    3.966545
H   78.423988   58.326427   88.098793
H   15.234554   35.469002   71.052483
H   91.490952    1.274472   43.899139
H   72.736710    4.952573   99.623161
H   15.647742   36.604126   17.762444
H   94.764244   47.161266   44.683357
H   87.792587   17.262775   67.301910
