200
TIME:    0.436, STEP:   436
H   15.493909   61.824512   18.691055
H   29.711241   35.739540   97.853996
H   14.029651   77.717041   55.002251
H   24.449387   79.264656   39.374344
H   13.129161   88.696838   50.840492
H   83.242371   47.495247   59.747978
H    6.198913   55.165062   53.445095
H    7.280877   97.350128   18.115162
H   95.388283   84.567841   42.938000
H    3.961659   72.153404   88.341438
H   19.025339   98.781197   99.155457
H   31.588287   47.254364   22.081247
H   15.984752   93.512703   53.258598
H   95.139565   54.033871   51.710506
H   10.158965   73.453407   42.496338
H   23.587360   17.890667   50.094872
H   93.427811   16.898148    5.915943
H   31.907875   92.589310   40.030941
H   71.546692   22.606052   45.369133
H   90.679817   77.013023   29.872791
H   60.437279   86.542404   16.860828
H   85.665565   56.306129   63.021622
H   89.135918   61.116379   44.433296
H   12.759728   89.846138   90.971489
H   11.765670   20.586843   38.416546
H   18.498846   71.034653    0.483130
H    2.691337   62.729557   56.962418
H   99.008331   78.214851    1.247002
H   19.323734   50.572212   37.190674
H   84.192398   26.014933   91.845932
H   13.105598   59.637852   16.434444
H   28.361858   68.100082   98.428658
H   22.387489   13.203018   75.573227
H   89.939674   63.791756   41.716171
H   38.582615   81.702133   32.728214
H   26.658867   45.453064   81.724007
H   91.890015   70.198624   87.426369
H   23.220070   49.825336    6.354904
H   45.816254   39.382137   48.788368
H   88.203079   38.882488   56.040131
H   80.562630   96.067886    8.029944
H   23.095049   38.996887   34.019417
H   73.172806   83.279396   57.606205
H   36.844620   72.753365   25.758215
H   35.473801   82.275101   51.436974
H   38.301598    8.737633   44.819515
H   83.667694   16.609718    0.476604
H   85.344124   65.547615   40.601517
H   94.660355   21.314236   61.307644
H   55.103405   18.686010   97.420319
H   73.545700   68.015312   20.101078
H   13.645668   39.071514   67.755653
H   57.462311   88.813530   10.492075
H   19.489517   86.319870   84.605659
H   68.902634   72.025955   84.434517
H    2.793074   67.521538   85.066315
H    4.871125   17.487160   47.552113
H   69.550034   63.135761    1.765881
H   24.045366   78.263718   11.866967
H   38.570103   94.888588   63.370972
H   49.784737   11.552393   36.510017
H   93.458611   16.889193   50.568367
H   76.847061   29.266748   78.272430
H   28.874931   65.431969    8.043587
H   74.499100   79.001007   25.944365
H   31.051252   24.175879   36.386368
H   78.853859   19.027687   89.884560
H   96.243828   91.895546   91.152016
H   23.494234    8.501906   59.499001
H   44.108715   45.046139   50.972126
H   58.379181   79.982117   78.524078
H   26.631962   18.669939   43.392834
H   83.714493   29.051586   92.932617
H   14.250743    4.656483   66.278481
H   81.531631    4.044363   58.396805
H   58.267891   12.156922   61.596695
H   94.599152   37.246811   69.373177
H   19.295635    9.538992   41.265327
H   13.020687   38.425686   30.597424
H   65.322754   89.573837   84.966461
H   51.686794   26.789450   98.223907
H   35.254742   65.065681   81.798027
H   10.235023   15.816257   84.545006
H   18.282518   68.268715    0.239707
H   31.928619    1.396460   52.227676
H   30.189209   78.916595   23.702728
H   44.639717    3.192530    2.220668
H   73.701546   11.249475   18.834881
H   71.684769   72.534317   77.876709
H   22.462425   94.832405   52.709194
H   33.026558   36.584797   79.882690
H   82.690163   90.255127    2.644530
H   56.570560   14.651581   90.147644
H   51.238880   87.391991   74.486473
H   30.091370   54.274925   76.102959
H   61.155251   32.091454   19.846144
H   81.964348    7.499945    6.770447
H    1.506533   31.484386   50.449314
H   32.576683   67.814621   53.575844
H   70.612358    1.112336   27.298258
H   18.610991   85.845581   78.169167
H   97.860695   79.621872   64.783455
H   27.242292   30.007067   33.241802
H   31.294062   68.301361   97.945724
H   25.078920   24.896973   31.442074
H   95.182533   17.176775   34.714485
H   74.943001   32.530483   55.347061
H   63.596516   41.799782   11.162621
H   77.777611   37.615578    8.610188
H   10.662951   25.327616    6.496539
H   49.773293   94.363564    0.933751
H   93.864044   68.274109   92.743736
H   53.689850   82.549103   89.672096
H   62.560234   15.171829   69.899658
H   57.309547   90.130249   19.900352
H    6.039618    0.063375   87.776459
H   24.516438   11.202586   86.465012
H   39.776699   36.643803   30.060661
H   26.305876   65.072281   73.852707
H   75.955086   50.586727   56.654327
H   42.600227   23.061893   81.097252
H    9.832081   22.836933   53.953529
H   36.961739   13.556154   29.843489
H    1.189543   60.265602    9.282057
H   71.051567    4.099199   86.330742
H   54.903072   67.715027   21.747000
H   90.514748   50.105087   63.485245
H   71.141472   89.107201   36.657940
H   94.879738   45.388927   80.423622
H   77.245224   23.220352   69.840752
H   56.520912   78.187408   10.901608
H   74.176842   87.995346   13.949147
H   91.797737   92.130653   98.833130
H   91.309875   18.028301   52.119701
H   14.108701   97.826141   47.410324
H   57.137772    1.375303   80.794060
H   69.217209   87.063972   65.095894
H   92.890160   58.101185   80.101479
H   51.436340   47.074631   71.503731
H   43.554115   99.689537   90.011383
H   60.321056   57.304794   21.241272
H   48.215286   46.966103   50.815968
H   48.704796   60.368549   92.773254
H   48.731941   19.432806   81.372353
H   49.514858   63.266739   55.477665
H   53.121605   65.352707   20.459038
H   49.366875   95.919456   45.878498
H   37.300545   66.122826   67.700462
H   70.425018   56.608986   95.996002
H   15.709787   90.814659   82.662186
H   69.311653   64.638626   49.864536
H   42.038025    1.686473   42.010132
H   85.281006   24.509823   96.584091
H   15.091131    5.641634   71.109047
H   21.384678   59.055233   64.299400
H   69.320549   44.014896   60.091003
H   61.362896   66.761459   83.076584
H   48.832672   33.515152   14.316013
H    3.411270    0.995810   95.336159
H   61.482243   48.946625   85.762741
H   55.881226   76.446587   78.204552
H   34.401653   22.040577   33.845993
H   73.656181   26.024441   37.150555
H   18.469114   25.937550   62.812912
H   57.077507   28.738981   11.750383
H   15.290595   58.202892   61.230396
H   71.524803   94.396797   54.299503
H   23.803432   39.850151   56.117573
H   96.736198   27.532812   36.394119
H   35.417458    8.980615   88.196198
H   75.620605    7.964714   35.959625
H   39.391945   58.167091   58.059998
H   41.459946   69.032364   84.909134
H   68.812424   69.849693   78.786667
H   62.328125   93.562119   90.015511
H    6.958753   48.719566   23.474787
H   33.404240   59.043907   95.107033
H    3.467098    9.387779   67.386429
H   70.589119   16.823198   66.842453
H   76.976952   56.557579   89.149925
H   77.839417   92.213127   37.162186
H   23.181028   30.345303   76.771469
H   56.611355   89.962097    9.949570
H   55.749146   25.583111   84.400917
H   88.057602   79.833252   77.589340
H    3.363622   37.877640   84.935158
H   38.176819    1.167240    3.608026
H   81.004761   75.526802   32.384666
H    0.942360   62.047443   68.783463
H   53.177765   57.207119   68.179337
H   57.183475   24.539711   77.901802
H   46.046150   90.255676   22.127882
H    8.454112   22.186935   62.296036
H   31.679224   71.353363   37.263279
H   78.168472   45.500744   21.175148
H   75.806656   10.864391   26.881077
H   10.764113   90.903831   10.082257
H   23.213285   93.510765   41.439110
H    9.299605   12.160318   69.251259
H    5.963484   28.352383   95.025742
