100
TIME:    7.626, STEP:  7626
H    1.607359   22.680237   92.164200
H   89.865616   18.105007   58.950146
H   10.854906   22.548702   33.822407
H   82.756607   18.459347   22.155262
H   26.863474   84.014870   58.932861
H    9.757783   92.946281   33.974197
H   53.290424   76.282288   86.816284
H   20.497734   48.347225    7.999183
H   66.166237   53.084610   20.056957
H   66.466591   25.883059    6.306995
H   90.903091   73.091293    5.174948
H   64.780319    5.942625   50.101784
H   57.465034    0.394872   67.255028
H   77.487450   81.570412   37.582363
H   73.231392   88.840927   84.167511
H   94.897644   44.731201    0.015900
H   10.869576   86.371521   67.613220
H   64.146378   23.757660   35.170937
H   64.038300   98.271713   65.127411
H   87.059555   43.865673   35.546120
H   11.739059   97.024292   50.259167
H   93.492386   54.207611   69.853943
H   83.924110   32.600456   14.160998
H   10.492208   28.057344   40.700775
H   56.834541   81.380325   92.859657
H   11.650112    1.288809   73.242622
H    4.480028   25.472609   51.281780
H   89.082085   12.395591   18.846891
H   76.990746   40.982105   96.687706
H   93.408463    2.095722   89.634056
H   16.185999    5.894293    6.034181
H   47.267513   41.812222   93.287071
H    7.521608   10.528151   84.807259
H    0.317832   74.845345   50.479614
H   91.165474   82.274834   89.023544
H   35.552479   82.729645   95.450996
H   11.231973   25.255278    9.364264
H   48.794838   19.391598   60.585762
H   23.175663   15.259516    5.296574
H   44.909271   98.262268   38.032272
H   14.068613   17.850256   22.009733
H   57.536217   71.508514   69.279564
H   76.916595    9.233982   52.306690
H   92.398300   40.644554   26.365536
H   95.156990   31.009357    8.687222
H   79.686729    8.369788   14.142729
H    1.313587   39.566475   98.665520
H   56.653072   73.915314   40.431194
H   87.946419    0.865654   40.269951
H   85.849365   46.806034   50.322975
H   42.977955   33.402847   33.815399
H   75.752029   56.103245   73.437347
H   67.059456   66.226868   59.964333
H    0.094565   82.779190   68.330704
H   33.601913   26.910812   65.212891
H    3.093933    4.511911   33.019760
H   79.706757   69.501381   81.283455
H   58.207932   56.705879   17.126566
H   91.719765   60.994717   26.038010
H   55.780365   13.947286   46.709007
H   40.754925   23.927681   19.813484
H   28.256294   56.960342   50.302834
H   91.789589   86.898224   10.532745
H   66.704765   83.305115   20.092396
H   35.011414   51.768970    5.744853
H   32.870056   63.162285   97.092484
H   75.720093   12.013758   35.246197
H   53.585808   53.676689   30.769501
H   36.981216    1.830611   81.943542
H   84.904854   31.678629   85.668976
H   79.872185   76.529022   70.672798
H   45.284595   98.386131   15.029313
H    9.761347   41.099064   66.221741
H   62.326839   66.768677   50.042236
H   29.822653   39.544071   79.510193
H    5.938314   96.327538   82.796028
H   59.386433   65.751900   25.989237
H   90.263672   52.076138   35.595295
H   27.207853   31.118755    2.762495
H   25.538635   93.594658   63.934486
H   60.106544    8.176827   35.778503
H   13.545861   93.926376   49.012638
H    0.235670   34.651768   56.205597
H   74.805214   64.732544   66.899010
H   81.007126   71.867882    8.497809
H   75.780319   89.169830   71.355759
H   76.478081   48.880150   87.180397
H   78.676079   94.833679   16.508179
H   13.944684   69.568810   65.819954
H   92.097717   95.520279   96.828979
H   36.110065   85.213448   94.508957
H   42.545673   69.027481   78.831108
H   74.294830   56.338436    8.734866
H   84.289375   75.833458   41.008205
H   24.743523   66.639938   91.324432
H   23.797958   94.590149   73.556038
H   57.286217    5.320289   98.610130
H   23.557375   63.792080   25.789858
H   45.427910   69.733116    6.279125
H   12.892241   82.937729   63.104481
