100
TIME:    6.503, STEP:  6503
H   77.551102   25.664106   93.192337
H   20.878407   57.253345   88.140480
H   91.547440   41.755424   47.008266
H   82.568115   64.726776   83.711548
H   36.924271   94.001556   89.382858
H   27.175373   94.162910   22.759796
H   12.148540    0.450319   98.996147
H    8.763321   51.193363   11.109389
H   93.771721   61.056458   90.745995
H   97.139351    9.757610   62.336491
H   95.361816   27.904669   13.347977
H    7.638000   49.652332   30.037926
H   29.096878   68.341225   78.850761
H   33.090660   85.031807   52.122089
H   59.591438   89.152824   38.173084
H   40.052902   42.952919   93.234863
H    1.174435   12.094480   65.382088
H   40.130856   78.403152   74.096718
H   46.551380   51.163559    5.966480
H   17.316162   67.711220   59.087090
H   78.379486    8.822552   80.739571
H   85.829285   52.716812   65.487762
H   98.917778   41.733742   46.292542
H   14.835144   14.623018   24.103788
H   97.000435   70.440308   84.566017
H   16.901979   34.414619   78.903862
H    1.317530   72.156509   28.996908
H   83.837357   59.977760   81.728043
H   52.572487   39.094738   49.771423
H   50.346653   29.890770    0.358920
H   71.990929    5.192647   94.882347
H   76.360687   72.838699   97.248802
H   28.419319   92.692329   83.638550
H   52.869286   77.761612   97.791061
H   19.114609   67.301704   20.698397
H   37.931988   94.771263   98.980934
H    3.521717   66.381470   20.876135
H   95.212425   39.945774   81.339958
H   70.580170   39.726250   14.123377
H   50.683071    3.393744   49.677486
H   90.818054   79.316032   95.553566
H   52.176590   67.104660   11.950059
H   67.252106    2.497422   71.191765
H   64.103607   21.795370   16.564859
H   92.568764   75.315689   12.589412
H   94.183464   86.951614    9.580370
H   92.539352   78.492996   87.887215
H   56.586712   62.348770   70.946716
H   55.116890   93.872047   85.067001
H   62.271381   29.712679   28.841787
H   43.055065   41.821121   21.978313
H   21.169456   60.310425   47.154793
H   43.764706   59.715332   25.184183
H   26.097870    1.097568   18.775635
H   23.016590   28.496490   55.660870
H    1.695238    5.693198   71.249329
H    8.514707    1.904933   74.476830
H   41.828522   62.759453   46.053696
H    3.155482   13.537728   12.247839
H   29.887978   27.630253   78.649803
H   69.914818   76.151138    7.371626
H   68.113747   67.413071    1.112417
H   15.548697   63.530067   87.540222
H   89.589035   77.187698   50.585232
H   90.437820   41.460506    1.164665
H    1.857958   18.989525   30.691954
H   65.820633   73.186218   81.026688
H   31.159203   89.450356   77.083603
H   81.011116   82.522232   52.376850
H   62.131523   75.225029   88.039673
H   15.532541   52.937195   84.141396
H   37.765079   35.703201   32.740707
H   82.983154   96.642578   95.009583
H   87.052956   37.844486   16.767389
H   75.705803   37.912510   94.369156
H   79.393639   24.353668   58.358948
H   57.394131   62.950611    6.073259
H   37.503094   25.504652   73.577019
H   73.354408   34.417362   90.234901
H   80.612015   54.770638   60.681908
H   38.126297   96.558182   68.658157
H   29.277205   86.643738   42.963337
H   29.204308   15.871144   49.256813
H   97.546028   68.634911   69.467735
H   35.687599   42.119240   17.359329
H    1.621309   47.921051   93.371140
H    1.475391   30.531715   33.631584
H   60.615135   84.697449   28.151833
H   90.638046   32.095009   75.004646
H   91.385971   41.725651   56.681786
H   90.152184   24.575535   70.793259
H   59.455044   84.567322   57.431351
H    2.308416   22.641239   21.891550
H   75.756386    7.702494   65.286301
H   44.159782   67.231400   65.518188
H   31.042755   38.934662   31.560699
H   46.424553   40.873398   63.195877
H   25.725031    8.228002   48.332947
H   98.925316   64.883736    0.341840
H   43.136906   11.757805   71.286537
