100
TIME:    2.256, STEP:  2256
H   64.758209   15.134524   97.080582
H   38.515541   27.061087   20.307699
H   18.533422   36.209213   96.853645
H   81.855270   39.703697   16.503738
H   74.964264   53.585865    4.535948
H   93.034431   98.764000    2.164568
H   34.733700   13.672840   66.874992
H   42.569145   83.774536    1.054853
H   98.171150   69.388168   58.080997
H   13.190165   48.776176   96.030968
H   90.407410   57.017536   22.440474
H   69.737030   36.772141   32.343941
H   99.758904   25.216423    0.901371
H   43.377403   98.122231   28.922672
H    7.940953   68.512238   42.328758
H   10.815418   14.411227   45.774185
H   42.688416   31.189888   78.756561
H   49.354355   84.991249   21.334076
H   80.401848   72.996567   82.217102
H   31.737946   57.903423   69.931618
H   30.402390   31.625507   96.012512
H   78.665268   47.078857   27.159012
H   55.623177   76.274315   67.803391
H    9.434715   63.738895   39.524155
H   48.895988    7.253212   53.207016
H   36.314625   60.385006   77.716652
H   67.542366   48.698803   44.734211
H   42.187050   61.742168   41.343334
H   60.225357   53.773811   50.529564
H   87.498878   35.004196   62.734066
H    4.846959   24.353308   30.894741
H    8.202421   90.182030   90.414864
H   29.266861    3.423024    1.035249
H   73.422447   66.973831   76.709610
H   24.694290   88.383728   62.101608
H   68.704910   61.706005   12.884568
H   96.179047   21.916773   86.229370
H   70.744987   17.662868   81.640877
H   49.847656   32.260864   25.688826
H   50.702991    0.983562   15.531168
H   81.068199   33.592472   95.494919
H   28.864777   13.107408    8.790428
H   30.673086   77.028503   64.425377
H   35.297798   50.582115    1.314083
H   60.963306   42.879833   49.163307
H   48.982052    5.946522   92.330544
H   59.355137   47.527008   47.112038
H   56.359898   18.610979    8.166374
H   30.975035   45.606945   54.482841
H   73.201988   65.086617   25.877171
H   43.372501   51.841454   77.203751
H   14.770231   54.399784   25.959553
H   55.678009   35.089783   71.845818
H   24.449917   70.400795   31.366663
H   61.161194   56.278774   19.549147
H   96.388992   10.161001   15.827240
H   39.271969   24.451332   70.551796
H   58.070404   63.836258   55.446609
H   68.201790   34.090893   38.288887
H   10.146807    1.190604   99.444588
H    2.010458   73.656319   38.499989
H   18.842724    6.944967   93.276855
H   27.255482   53.311195   78.787766
H   97.954407   54.066574   65.893440
H   21.865883   80.661438    5.657701
H   62.755592   30.120491   79.577675
H    6.565119   26.359121   75.981766
H   24.528587   46.560608   74.052444
H   69.342400   87.684563   18.739494
H   76.089172   61.614944   96.982635
H   50.394661   41.901741   35.089016
H   87.949646   76.652771   21.795057
H   59.896332    6.716610    3.900503
H   80.542656    6.614772   69.127769
H   70.941063   31.853720   72.417953
H   78.992516   52.161911   44.129108
H   71.785858   31.011526   30.948355
H   37.971310    3.205832   39.030834
H   69.694519   46.892147   42.848663
H   88.886787   86.087738   26.564674
H   55.030300   52.621014   14.824776
H   10.592896   58.960953   98.131691
H   60.540127   44.912354   44.772678
H    5.361849    5.210421   57.369171
H   42.481415    7.769272   29.058441
H   99.366272   91.920998   98.446602
H   17.827871   39.323349   31.118193
H   92.272308   24.673553   72.286140
H    2.500051   68.561729    9.742785
H   66.878677   16.456497    4.865398
H   16.347473   95.249527   81.104324
H   45.210300   65.176079   76.508354
H   30.032776   95.231064   93.445206
H   65.279701   50.076488   78.928505
H   17.586269   47.651436   67.927238
H   80.257919    6.644814   50.923676
H   83.531876   97.147896    7.444733
H   15.148398   35.446167   19.938805
H    1.242954   46.575024   56.075142
H   79.346542   20.755848   80.400543
