100
TIME:    8.134, STEP:  8134
H   67.252922   76.094627   91.699112
H   75.835464   45.634335   90.979813
H   19.586931   59.096359   27.859001
H   82.841873   97.528679   94.310005
H   22.311426   24.733219   45.158508
H    1.879386   92.395927   84.283516
H   26.667629   10.583682   26.542561
H   80.569931   92.296654   61.357895
H   53.678627    4.241724   88.080856
H   52.591469   33.177189   26.199150
H   43.650162   93.531906   56.240791
H   45.390182   31.405804   13.942169
H   25.071663   69.644852   16.772779
H   52.333946   80.004616   76.241570
H   79.401558   43.463852   59.735573
H   74.472534    0.299465   57.847931
H   70.019112   19.972172   13.858464
H   75.006180   99.038719   17.561893
H   71.952545   19.583874   91.893219
H   73.370468   33.079510   70.133156
H   81.593636   46.452389   36.473186
H   42.194843   54.881989   26.593018
H   77.141579   28.470583   99.626053
H   63.293030   34.134491    2.971742
H   38.665108   41.093758   96.611366
H    9.254910   86.313156   25.436478
H   60.675987    4.355229   61.362560
H   46.218094   36.107319   35.638924
H   88.036583   87.072311   72.673668
H   12.887205   89.522690   30.017826
H   36.179371   51.446693   65.842888
H   79.343071   27.778194   46.258934
H   43.305149   73.360329   30.571913
H   21.782875   28.290047   29.078085
H   78.522835   43.812065   19.930723
H   79.712570   22.519033   93.854195
H   59.954632    6.649824   49.392666
H   27.799606   10.094332   96.435921
H    1.731764    4.192362   56.067192
H   97.061844   50.705948   78.001343
H   79.350479   35.279427   33.977993
H   14.724847   73.500641   95.215965
H   81.288422   12.281277   89.000893
H   59.959385   49.171890   76.034210
H   51.090973   10.967762   52.158791
H   73.128990   18.057182   16.206556
H    5.284759   67.192696    3.543472
H   56.684078   79.147552   71.863380
H    2.797575   58.791260   20.004894
H   96.515381   54.538120   14.802793
H   42.943073   84.358070   39.171661
H    0.440471    8.963659   40.090546
H   77.593697   69.172424   30.462156
H   88.327881   74.492874   90.747940
H   93.153328   71.430481   69.530457
H    3.726646    3.977545   15.726242
H   11.912993   54.843361   29.598640
H   20.381380    8.731123    4.041041
H   31.785622   82.459068   87.039093
H   22.259155   52.995289   32.260277
H   72.799484    0.303792   80.205055
H   10.226387   52.231949   27.316261
H   26.277424   52.233673   75.697662
H    1.586466   86.072388    6.299286
H   55.176849   11.194801   53.053116
H    1.664525   37.908012   27.129917
H   34.962891   29.576420   59.771832
H   18.494926   82.729179   55.054840
H   62.301376   65.328972   50.083328
H   95.222054   57.192577   84.591522
H   63.741322   41.964493   64.580147
H    3.452779   81.518944   52.264332
H   76.638962   15.971453   53.195934
H   51.145351   34.619144   19.858812
H   54.293854   40.292088   18.026846
H   17.948481   28.885525   48.613815
H    5.523326   21.781868   34.999023
H   14.128877   18.861111   63.651722
H   51.566833   29.626598    8.431723
H    0.626884   65.921928   20.169716
H   70.051674   13.432321   66.140991
H   51.664566   97.220749    6.514086
H   32.367729   43.147373    4.583436
H    9.756024    8.202946   20.502377
H   56.272202   40.089794   59.252922
H   64.091110    7.828422    6.632831
H   10.406327   11.944313   11.403847
H   86.846123   54.184059   11.241058
H   24.488613   41.283714   61.665169
H   47.184277   74.622330   14.988466
H   56.899494   12.644515    5.237202
H   80.132530    7.234196   88.512688
H    6.858627   71.579765   48.019287
H   33.385704    6.653209   75.261925
H   15.959175   21.135185    2.997885
H   65.756638   74.529358   47.317329
H   16.963820   34.472130   69.394859
H   22.576815   88.930046   15.590868
H   21.227837   71.926781   63.730755
H   44.444675   69.899765   14.165645
