100
TIME:    7.167, STEP:  7167
H   32.646805   64.772591   92.584427
H    2.542153   93.232445   30.007130
H    2.964864   89.527031   39.211819
H   82.679565   37.370819   47.315670
H   30.976446   47.223995   71.378586
H   16.876362   93.443550   88.518234
H   77.346863   45.288425   50.921886
H   56.574226    8.639108   50.144287
H   77.449333   97.215454   48.950344
H   79.003365   19.292498   88.334785
H   33.598145   54.622318   49.387398
H   82.296783   82.935410   82.774437
H   86.733849   28.175869   12.870117
H    0.214721   82.985176    2.650998
H   67.656380   29.841057    6.242568
H   13.353745   84.876892   38.117676
H   47.779640   56.011036   25.828638
H   54.330624   46.092728   51.080032
H   56.890919   79.018311   40.946682
H   99.428238   53.611439    4.295288
H   38.976776   42.720200   62.715397
H   49.487610   53.598282    8.941986
H   90.052422   36.333473   27.294722
H   53.140869   22.566378   74.790588
H   73.251411   17.780708   89.469826
H   13.814281   14.818363   16.435934
H   44.060696   44.553818   42.173359
H   27.811386   90.971046    3.674234
H   67.010353   99.338631   18.384096
H   75.807953   13.456736   53.144341
H   98.120934   64.733383   42.348778
H   18.285854   54.492573   35.778954
H   75.191536   44.110176   43.456917
H   80.924339   16.909805   69.817062
H    2.588764   17.027534   61.099091
H   95.653053   46.779221   96.893776
H   67.206711   42.065063   73.196930
H   67.765282   27.792637   28.196762
H   42.551632   25.259169   49.776581
H   88.142082   41.232868    1.918717
H   45.437561    2.102109   11.196280
H   96.218117   69.708542   45.847614
H   72.966461    6.480619   19.154278
H   21.706928   32.940392   81.486565
H   34.971832   49.117641   69.409615
H   85.611931   99.616409   12.277971
H   97.726852   14.603768   94.260139
H   56.625057   69.187759   12.030972
H   74.527168   38.878757   58.581345
H   76.212158   39.819759   82.415810
H   43.009472   77.715790   28.976879
H   53.444973   98.693909    3.567767
H   57.538937   63.565430   86.620735
H   10.722809   90.266235   48.075760
H   70.147659   86.686562   61.309368
H    2.522249    4.994735   48.645203
H   50.607647   82.745537   37.628868
H   92.386398    0.052306   28.950705
H   55.522186   41.597736   61.274345
H   86.070778   78.667923   59.764061
H   11.800186   45.272377   55.599319
H   44.547096   61.232651   71.071365
H   60.629375   18.219727   42.007751
H   35.184536   80.804764   32.555630
H   16.792530   88.427948   63.000523
H   61.067291   85.980614   69.952820
H   12.546515   96.144958   13.084731
H   85.291939   27.426203    8.826644
H   14.103428   34.811417   10.730100
H   75.585899    8.620395   86.641479
H   94.447060    7.759107   76.177773
H   83.078209   13.632134   81.385246
H   39.689819   63.801830   77.988098
H   72.432716   95.820374   77.314972
H    7.713456   38.868206   44.708393
H   95.087852   66.911644   13.681643
H   17.699310    5.477800   17.849089
H   68.699020   82.088158   10.245296
H    5.198087   32.466984   97.641273
H   48.048294   18.599045    3.477793
H   51.120689    3.428262    8.344436
H   79.102180   90.949768   87.413017
H   71.204964   26.975622   12.491549
H   43.227451   25.455029    8.823027
H    3.356199    0.583334   52.992073
H   86.342026   72.311722   39.481537
H   45.822514   82.253181   65.293571
H   71.294090   31.563028   21.267250
H    4.417951   95.125618   69.573982
H   32.679409   14.405155   80.419113
H   17.325916   60.427559   84.815720
H    8.584322   34.505829   70.083382
H   44.871937   42.565495   73.239693
H   39.929306   47.986412   10.058711
H   32.680412    7.752734   80.776733
H   85.886383   12.715175   97.263847
H   93.719902   78.979233   25.008522
H   24.443354   41.082310   35.004517
H   67.293724   67.751045   44.726398
H   84.381050   94.718094    7.319932
