100
TIME:    8.905, STEP:  8905
H   15.113469    5.390738   90.993240
H   54.541672   87.412750   39.593777
H   32.839672   14.565352   18.809139
H   82.971283   65.764458   52.050163
H   15.402708   86.532272   24.254036
H   89.925903   91.560646   60.638748
H   86.258858   62.647591   86.835762
H   19.970856   58.996609   90.565971
H   34.725975   30.113251   39.549221
H   31.532900   44.247608   56.387489
H   71.933624   24.553547   81.974464
H   15.961220   70.052269   59.061302
H   75.907318   22.980148   40.152954
H   14.159362   77.628181   34.914738
H   88.766121   74.594337   22.659668
H   43.473007   32.865196   93.847717
H    8.019868   70.966316   84.045631
H   91.491562   61.521645   90.835526
H   83.964127   51.930439   32.511532
H   52.597546   16.706423   22.626368
H   35.841393   69.697113   15.547663
H   16.111368   55.905502   60.935272
H   66.847618   22.203032   77.567566
H   91.654922   43.357880   45.711712
H   11.091027   79.949554    2.304291
H    5.618605   63.584091   52.882442
H   94.190681   72.308121   76.657455
H   81.163361   72.095001   61.126770
H    4.801325   57.023159   36.227165
H   42.449715   70.440628   91.310913
H   66.525475   20.584602    4.843819
H   28.024311    6.477914   74.883629
H   97.612442   16.950211    0.029678
H   54.359772   57.632568   96.598717
H   59.334892   85.436562   66.841415
H   46.733677   82.909927   91.430702
H   33.904617   78.414314   10.144450
H   95.932777   95.985405   50.841469
H   69.190819   87.393333   81.351929
H   24.442320   78.527428   38.661438
H   26.657465   61.731964   52.142422
H   49.749039   76.524124   34.577175
H   87.923615   16.906494   44.689869
H   10.730724   62.118752   51.417309
H   84.212814   80.554482   18.136381
H   63.176689   32.760052   19.338861
H   11.312518    9.122137   10.947569
H   56.731136   87.088608   19.568073
H   25.332695   94.938759   89.249786
H   12.699902   66.274376   60.896290
H   42.890133    9.923038   47.300949
H   37.912502   37.420956   89.478065
H   93.581688   73.642944   85.684372
H   70.469330   61.915619   24.768822
H   31.766018   38.996498   76.083298
H    4.686926    3.166528   89.479568
H   60.788841   32.596642    2.926980
H   62.971130   35.920189   84.182152
H   92.596443   15.036572   27.848375
H   71.379692   12.255437   10.331200
H   21.434855   64.445557   20.092625
H   82.862053   45.055588   92.431496
H   78.621719   99.621361   22.827881
H   54.531116   90.272324   85.368652
H   85.778076   49.616909   24.852785
H   54.300636   99.579796   72.717461
H   73.103561   56.229221   96.994797
H   65.236481   26.824310   91.913101
H    0.724669    9.929817    1.725661
H   10.880919   95.920364   82.956253
H   39.253460   89.503197   55.333229
H   39.962082   55.919334    8.779294
H   26.369141   77.832237   33.425648
H   34.175022   85.822243   74.048897
H   91.434464   41.427364   76.484772
H   36.177612   78.300529   96.736313
H   75.546707   55.050846   48.675285
H   50.347347   68.450111    6.238502
H   88.540764   27.361927   17.036180
H   62.815727   23.922003   53.747490
H   85.145561   21.408670   12.223001
H    9.520634    2.222957   42.011551
H   81.135506   56.041294   78.010567
H   62.797623   74.179298   50.082546
H   18.731598   91.859665   84.513840
H   46.344349   36.149010   60.173447
H   61.899662   55.886116   48.167992
H   99.245934   92.487526    3.246908
H   40.489750   98.356636   55.359383
H   79.017593   42.901253   42.548630
H   88.451958   54.273411   21.519432
H   37.178722   65.220505    3.205386
H   56.281147   94.708824    7.641902
H    7.899410   53.428944   27.248251
H    2.627322   52.074680   20.713400
H   29.438110   44.082764    7.494093
H   55.765190   78.718513   25.053898
H   21.088602   27.080193    0.111693
H   84.499474   75.256142   99.149483
H   92.335663   50.115963   39.893414
