200
TIME:    0.767, STEP:   767
H   25.664690   60.725994   24.350950
H   32.661316   40.571758   11.291628
H    7.092234   92.204857   71.305779
H   35.606720   83.133461   30.718777
H    9.614849   97.085983   46.081509
H   72.474365   38.511387   49.950962
H   10.994514   54.930206   59.851856
H   14.698401   11.642489    6.366303
H    8.830105   79.605568   34.863258
H   92.309814   67.516785   75.285484
H   30.562307    5.851823    9.615364
H   32.957016   56.089230   37.852795
H   24.108738    4.498339   39.692528
H   79.495148   55.430378   67.660484
H   94.178421   76.001465   41.681919
H   13.939406    4.252625   42.954502
H    8.998281   32.400497   89.844978
H   24.048418    8.501913   34.138084
H   82.559654   10.622874   50.241756
H   91.732880   72.467430   17.041592
H   64.409622    3.065545    1.696511
H   78.296654   68.958031   50.266182
H   79.223999   58.709740   36.491135
H   19.770674   92.863907   89.933578
H   26.152565   33.899120   26.605579
H   18.224848   85.724495   89.550980
H    9.101456   69.371178   70.270905
H    6.605101   91.869308    2.117959
H   33.264816   40.511299   35.252483
H   69.234871   34.882202   80.396088
H   12.673451   73.466560   16.839128
H   22.342735   75.857895    6.578240
H   14.389771   20.325203   79.616280
H   78.984795   64.152878   47.501701
H   22.697922   68.024948   30.210011
H   15.846663   37.906116   85.519577
H    1.390252   63.054466   89.911293
H    6.847561   58.387466   91.472847
H   33.565880   27.529741   56.145916
H   85.028740   37.521336   43.110443
H   80.661118   80.605293   19.016621
H   39.570297   32.056019   24.204222
H   67.213028   75.675629   69.896988
H   36.107224   88.829613   37.596031
H   46.783489   92.373894   63.381783
H   33.643627    0.123389   48.419373
H   89.905258    0.393085    7.733288
H   77.285797   65.542564   28.702164
H    7.461342    8.753428   61.546288
H   43.258347   20.179743   83.417366
H   65.671722   63.825790    6.983459
H    0.992817   44.768658   74.872032
H   66.390953   79.351120   14.815124
H   14.563138   93.304932   89.507324
H   54.892105   64.664619   73.729645
H   98.550102   59.366528   95.905029
H    3.926500   18.739723   44.001499
H   73.166306   70.830437   95.791176
H   17.060936   84.657852   19.872425
H   30.914566   93.029945   57.252098
H   48.712734    5.094494   26.838930
H   99.408287   17.673307   53.106323
H   85.966026   36.123268   67.105423
H   36.895134   65.904205   15.433964
H   79.819969   83.935501   39.479847
H   18.066639   37.035240   42.336044
H   66.489845   12.045603   96.723152
H   94.390236   92.648094   97.705246
H   35.267776   12.974896   55.309479
H   42.203354   50.815254   50.954449
H   58.233974   85.707039   87.377884
H   17.329279    9.969767   41.075844
H   94.219864   34.773983   81.848946
H   25.034481   97.380920   75.915138
H   85.562057    9.402482   42.833199
H   66.634308    0.471174   59.433750
H   93.200119   49.569157   64.691216
H    7.036010   15.566322   29.946800
H   15.538292   53.171074   23.262302
H   60.334297   87.727821   69.269012
H   65.735199   21.195213   93.309616
H   49.809479   59.112442   71.565392
H    8.943632   19.447048   74.860367
H    7.488636   79.092278   11.027506
H   20.141644    4.896666   42.847340
H   39.514111   67.335434   16.812366
H   59.474766    3.882260    2.979529
H   70.948936   98.930069   31.319479
H   81.816391   73.339897   79.068665
H   20.804546    9.669330   49.067669
H   19.151720   39.442207   78.410423
H   80.384537   93.159256    9.866856
H   72.295189   10.918512   80.720589
H   36.396255   75.500214   83.575134
H   38.478134   49.797516   89.888733
H   47.447762   39.491932    4.283343
H   86.454384   96.050850   21.025742
H   92.407669   36.627285   53.583248
H   25.076454   64.498863   54.748859
H   76.367584    6.490493   27.379068
H   33.379116   94.997375   93.755501
H   10.168377   84.629601   62.957642
H   34.103615   17.910107   37.866943
H   47.198616   68.912491   11.090615
H   24.640144   20.547092   42.173462
H    8.286957    0.971101   19.217278
H   90.622772   36.640457   53.806610
H   61.645699   54.508503   98.363503
H   86.189484   33.437420   24.615726
H   21.295851   20.712576    8.116537
H   54.128223   91.487213    1.166634
H    7.154368   76.597595   96.514053
H   47.940937   86.390129   82.472382
H   61.438988    8.035879   61.364437
H   46.263756    3.913388    8.294359
H   92.531509   90.381248    2.708808
H   10.907318   15.863398   90.323715
H   38.097355   52.935966   23.444298
H   38.875988   77.499428   57.494125
H   84.690201   57.192989   69.002441
H   46.054878   25.261456   70.250961
H   95.550560   14.995785   63.689938
H   44.941780   99.595840   39.663094
H   96.313042   48.354885   94.786949
H   61.147224   95.904144   75.383438
H   67.029701   76.770859   15.355989
H   82.287224   51.650589   50.702026
H   63.901352   91.703239   39.453480
H   98.953094   33.407501   72.880463
H   93.288643   21.651491   75.479813
H   69.882431   66.368866   23.550983
H   61.471909   91.278275   21.754940
H   90.716896    8.234356    1.295754
H   75.079582   26.514671   56.193058
H   30.460247   91.841110   32.200264
H   48.321846    0.950495   75.917648
H   69.765205   87.907433   81.573669
H   95.713478   47.766273   74.871521
H   60.088120   51.703560   71.425446
H   43.733414   83.815315   80.814133
H   76.707924   47.570911   31.933517
H   32.977448   57.023228   58.532112
H   38.064320   66.460396   81.608772
H   33.564812    7.451154   86.857368
H   65.073418   52.289131   66.301224
H   65.249634   71.054901    4.606247
H   57.195396   94.469917   43.508476
H   28.262390   53.801743   65.801414
H   79.273773   42.789120   92.705498
H   26.261236   94.428406   70.275444
H   57.645321   70.260010   47.365723
H   55.971531   92.527237   31.637341
H    0.657748   12.133183   84.965050
H   23.840799   13.239354   62.929337
H   34.510078   67.797211   70.286957
H   79.146606   44.835629   70.275169
H   64.827652   76.688530   86.995895
H   53.538624   28.204384   22.070669
H   88.261856   99.748566   83.060532
H   57.771271   35.441162   98.465149
H   59.132587   62.999207   69.403778
H   18.860241   20.325247   30.978481
H   87.904091   11.592813   37.012924
H   30.619106   35.661331   48.652126
H   53.908218   39.970387   15.002692
H   20.993422   47.671005   59.420998
H   65.825134   89.043098   57.808449
H   24.092583   54.909954   69.804855
H    1.234064   26.456390   35.612530
H   50.522717    6.482748   84.468811
H   69.297180   11.901071   35.931847
H   27.957027   45.872524   59.076443
H   47.855343   54.808891   75.595718
H   64.736542   61.933117   86.466194
H   46.943817   91.072144   74.451904
H   17.177025   50.508923   23.796429
H   30.003883   69.384529    8.952618
H    6.400727    9.703445   71.618881
H   62.123932    9.128237   62.971458
H   61.231747   60.108192   93.819260
H   71.796303    4.074845   29.466452
H   29.857368   30.749355   88.855171
H   41.369728   89.611076   16.507851
H   62.957699   26.195503   96.578056
H   92.338036   65.476753   76.225662
H   10.292916   40.670654   86.591774
H   49.702423   95.497787   10.942219
H   65.102760   89.547432   43.967091
H   91.356270   63.523499   72.566406
H   59.196888   55.406559   72.361282
H   72.995110   13.588619   75.538094
H   43.332684   99.250900   17.911844
H   15.806293   30.061544   69.879318
H   25.896851   84.563362   43.933937
H   66.809540   30.716257   20.092413
H   76.614761   11.676600   22.346216
H   12.964307   99.929359   21.254316
H   13.593595   86.932281   32.104229
H    4.885645   13.086483   54.447777
H    2.511166   17.138025   90.427116
