100
TIME:    2.313, STEP:  2313
H   60.903473    9.907430   97.028397
H   36.929985   30.151529   23.903250
H   19.513197   40.310089   96.184807
H   81.864838   37.355370   13.379284
H   74.453720   58.154667    2.990509
H   92.150764   98.702248    7.809578
H   31.746521   17.521858   71.332466
H   38.089058   88.706024   95.821495
H   96.769981   63.907867   54.492840
H   11.632658   49.594612   98.262749
H   85.105408   59.311069   16.949953
H   67.561783   39.629272   28.286753
H   96.132912   21.767860   95.235863
H   40.555061   97.946541   33.260555
H    8.634357   63.420715   39.588608
H    8.523407    9.425706   41.042740
H   38.105698   34.959389   83.946365
H   50.572441   82.219353   19.357784
H   81.289864   75.387512   85.220352
H   30.202400   56.693165   73.812447
H   27.019928   25.950817   94.465225
H   84.129913   47.154526   22.304932
H   54.862144   75.810738   66.172607
H    4.138762   64.422516   35.290642
H   46.857292    2.732681   53.627541
H   36.053265   58.686817   72.373772
H   62.627281   46.329166   45.865322
H   37.377762   64.402733   43.227650
H   61.464752   58.945351   47.835075
H   89.684563   33.593460   67.265465
H    7.089449   29.465052   26.384430
H   11.801342   88.606911   85.138084
H   33.281918   99.252708    6.170262
H   75.830788   61.750107   74.308228
H   23.277248   84.074982   65.572548
H   73.660751   66.183708   12.688657
H    1.646220   19.829153   90.720764
H   68.388832   16.619602   85.663475
H   47.441490   31.019033   20.165255
H   45.334454   95.647575   20.015821
H   77.172585   35.548107   96.837814
H   23.741943   15.665671   11.468283
H   31.164061   77.370316   68.542778
H   31.657911   51.537537    6.887229
H   56.019207   40.631092   54.040871
H   48.246677    7.033710   92.561897
H   59.800884   50.626801   47.659546
H   56.362942   19.197844   11.693214
H   32.641045   40.886372   52.208878
H   74.397026   65.953758   21.890667
H   43.368153   46.338539   77.804749
H   17.540171   49.110394   22.217449
H   56.860435   35.420288   68.535545
H   23.130070   69.471031   33.881927
H   56.623268   61.275928   20.032728
H   96.460312   10.101097   13.886826
H   42.885349   22.806633   75.972954
H   53.826019   58.453369   53.978470
H   72.697533   36.499233   33.912735
H    6.385483    5.571974   97.823372
H    5.606117   71.005318   34.055996
H   16.819901    6.414310   90.698044
H   31.121742   49.424278   74.877365
H    1.868408   54.376640   64.346153
H   24.128323   76.109161   10.966008
H   59.253975   27.286842   82.947960
H    1.991763   28.329760   78.733658
H   20.591225   49.820435   76.777374
H   72.183006   83.588905   15.164409
H   77.244202   64.482002   96.862610
H   48.584709   38.023521   34.404957
H   83.249512   74.761063   25.968340
H   56.179886    3.897312    2.438914
H   79.288475    3.007643   65.740089
H   73.689476   31.934824   76.738876
H   80.339760   55.815300   40.293941
H   76.960876   26.071123   31.956614
H   40.649273   99.478737   42.178898
H   72.428146   46.724720   43.484886
H   86.091408   82.983597   21.654060
H   56.145756   53.210705   18.231411
H   14.869787   59.333206   93.365456
H   64.146530   45.863861   50.201664
H    9.283050   10.087984   52.162842
H   39.706039    4.203836   23.532913
H   98.054688   94.014488    2.404887
H   21.634771   35.178986   33.836166
H   93.189896   20.109970   71.692970
H    3.683075   65.388008    9.276489
H   61.839153   14.111214    6.902953
H   18.680145   98.327576   82.308060
H   49.428158   69.462212   77.594673
H   33.689960   96.939255   97.854843
H   70.788704   53.534184   82.771935
H   16.600624   42.545563   69.237083
H   84.965881    4.394007   47.979568
H   79.007431    0.419019    4.166587
H   15.357682   35.931488   19.026653
H   98.527641   46.820728   51.300644
H   82.886429   19.291840   74.910675
