100
TIME:    1.745, STEP:  1745
H   99.315582   61.995926   97.548416
H   52.729912   99.355446   88.074364
H    9.749830   99.446892    2.851079
H   81.769501   60.756248   44.514248
H   79.541245   12.626958   18.390503
H    0.956710   99.317604   51.559399
H   61.513325   79.168785   26.914131
H   82.732735   39.566334   47.974442
H   10.732567   18.518890   90.245338
H   27.153074   41.438972   76.023247
H   37.939377   36.456211   71.661545
H   89.237930   11.158390   68.718071
H   32.263283   56.132484   51.689659
H   68.679451   99.697273   90.034950
H    1.725001   14.156900   66.893509
H   31.362320   59.106621   88.191177
H   83.772079   97.396622   32.233086
H   38.434319    9.841326   39.050583
H   72.440865   51.559685   55.294491
H   45.503975   68.754990   35.140327
H   60.725861   82.497192    9.882397
H   29.669926   46.403137   70.672218
H   62.445763   80.430244   82.423218
H   56.912117   57.610264   77.475845
H   67.172722   47.779373   49.437050
H   38.657696   75.612091   25.613798
H   11.605106   69.941299   34.593899
H   85.303818   37.890408   24.452333
H   49.114288    7.412271   74.685417
H   67.904411   47.651321   22.110912
H   84.745094   78.527908   71.328094
H   75.937592    4.301795   37.720665
H   93.272781   40.809364   55.000336
H   51.831886   13.803795   98.237793
H   37.397118   27.011665   30.986717
H   24.275887   21.562414   14.640897
H   47.166931   40.631203   45.964420
H   91.867714   27.015659   45.580631
H   72.273026   43.257393   74.877518
H   98.834282   48.822575   75.327835
H   15.990257   16.058603   83.455978
H   74.790527   90.173882   84.783203
H   26.271544   73.964188   27.516853
H   67.929253   42.016846   51.350399
H    5.290100   63.039600    5.434160
H   55.574619   96.199989   90.256477
H   54.505665   19.873140   42.534126
H   56.332607   13.349791   76.548653
H   16.039419   87.928673   74.866653
H   62.488026   57.309414   61.615826
H   43.411488    1.174645   71.815857
H   89.937172    1.815689   59.507183
H   45.077660   32.126831    1.522225
H   36.282230   78.736046    8.818991
H    1.839827   11.480619   15.213703
H   95.749619   10.698036   33.222885
H    6.878054   39.195915   21.951590
H   96.120941   12.093711   68.608353
H   27.901344   12.498729   77.519363
H   43.866146   61.915577   13.977759
H   69.776596   97.422310   78.341393
H   36.977692   11.702259   16.397934
H   92.594788   88.157066   13.844522
H   62.866692   51.286858   79.764732
H    1.583183   21.473515   58.070423
H   94.147285   55.523903   49.363369
H   47.564224    8.692925   51.311291
H   59.826698   17.335571   49.623692
H   43.873528   24.401749   50.790054
H   65.734436   35.911339   98.058655
H   66.620720   76.670830   41.218906
H   30.084181   93.611771   84.382683
H   93.213943   31.991367   17.003765
H   91.786278   38.952560   99.498024
H   46.304581   31.126627   33.681255
H   66.914589   19.410349   78.512688
H   25.389307   75.302719   21.909403
H   13.963603   36.619293   10.808898
H   45.196037   48.390476   37.147591
H   13.947506   13.917093   70.587898
H   45.030338   47.334484   84.283485
H   72.253052   55.623734   40.862015
H   28.208866   36.382172   96.102600
H   70.211372   61.483501    4.043465
H   67.362411   39.733810   78.594315
H   11.127872   73.153038   62.961357
H   83.699318   76.477203    6.751469
H   84.046219   65.585678   77.603859
H   91.895454   97.013863   13.923080
H   12.056654   37.481758   86.597160
H   95.435097   67.655090   70.312943
H    7.399401   26.746218   66.769600
H   97.247139   79.917282   53.913193
H   15.888182   19.079370   44.474709
H   26.422493   93.422638   56.184593
H   38.051453   26.822577   77.317337
H   24.092346   67.822472   36.832809
H   13.272187   31.095306   28.116161
H   25.584583   44.372303   98.881271
H   47.611771   33.880833   29.617649
