100
TIME:    5.486, STEP:  5486
H   46.326332   18.927616   94.123428
H   48.964790    2.140885   24.014969
H   74.058441   68.588837   58.949512
H   82.397415    6.626488   39.456673
H   46.033447   12.484514   16.957363
H   42.949612   95.264702   22.043013
H   65.447273   31.778652   19.465425
H   88.697510   63.209530    4.486907
H   18.771584   58.836868   54.763702
H   24.921972   95.154198   22.515089
H   89.960678   86.983810   11.310562
H   46.456749   98.675682    2.430056
H   93.993942   29.841698   79.905205
H   83.447182   88.166481   74.727684
H   47.229347   79.995987   87.065399
H   80.943329   31.903519   77.654999
H   82.955574   44.826405   72.800568
H   18.382116   27.888451    9.353029
H   30.714752    8.496303   52.384647
H   44.713524   89.312538   89.845039
H   38.729698   10.068161    8.345238
H   88.328506   51.366730   52.094696
H   12.497523   50.004936   75.389145
H    9.329128    2.456759   99.634506
H   33.372467   51.093254   77.055214
H   21.538038   64.480988   74.538483
H   89.015015   14.429897    8.816195
H   69.648232   12.507622   48.111977
H   30.459068   46.824619   97.846771
H   11.351271   55.061272   19.509769
H   31.963314   13.996076   75.344078
H   12.146544    0.941906   91.397575
H   56.784611   67.100471   92.019157
H    9.897702   70.963585   40.634026
H   44.404770   44.220627   58.785995
H   49.526005   15.115599    2.178787
H    5.978159    3.625451   40.740582
H   37.245548   58.559841    9.574049
H   13.505450   61.886223   12.678251
H   46.473278   98.601860   69.662437
H   60.322342   44.419983   71.593483
H   38.570061   58.073822   60.532169
H   58.494968   96.397858   97.734047
H   29.044140    4.725177   17.128279
H   80.785439   15.443446   25.562559
H    7.309261   67.553879    5.448653
H   84.594040   23.185555   78.126274
H   56.532398   51.873993    8.020469
H   25.391800   78.098938   25.634720
H   40.935680   14.231779   99.967209
H   43.126072   40.005905   11.258267
H   71.741920   54.680233   13.915565
H   22.667728   53.818420   84.251060
H   49.646721   17.692528   73.898643
H    3.991076   39.371799   47.009480
H    0.428514    6.762983    5.870422
H   44.039810   31.250725   77.751656
H   17.556786   58.802742   72.248398
H   22.946173   70.566032   90.319939
H   97.000198   49.461033    7.575691
H    5.761345   23.447994   86.664238
H    4.208659   76.879166   47.131096
H   46.505352   32.928757   57.278961
H   19.752953   71.647705   78.195862
H   50.072334   22.686043    6.456066
H   64.332329   69.547783   70.558464
H   47.416718   38.027737   31.927132
H    1.410081   31.288134   28.465124
H   30.323561   55.597359   16.159523
H   41.531128   24.071625   90.181183
H   47.827843   22.133240   96.338692
H   21.621635   69.455261   58.282074
H   49.294159   46.945297   21.086342
H    9.442516    2.210620   77.194237
H   26.673815   36.461559   17.274055
H   55.353172   59.175140   26.791632
H   65.049187   51.056667   88.070930
H   89.722580   92.004204   17.410257
H   24.587009   37.404613   78.891106
H   30.484013   10.170218   48.297394
H   18.224222   86.036850    7.874698
H   52.950386   80.048370   28.037188
H   64.878014   98.864685   52.403233
H   27.578306   81.607834   62.354664
H   85.206139    5.731523   15.946085
H   25.030231   10.563239   22.747864
H   33.552269    4.475960   85.137115
H   44.258965   66.079407   38.696442
H   69.533310   88.720879   83.322395
H   81.302826   83.566818   20.329184
H   48.532402   69.658508   49.316082
H   84.207344    8.079185   38.056892
H   37.116547   92.126778   43.245380
H   77.468208   46.002392   96.711769
H   61.741890   58.328060   42.147800
H   47.042709   79.095734   84.089767
H   27.149244   82.511086   21.684464
H   27.002096   62.947693   68.244545
H   47.372620   60.498287   85.526955
H   79.967194   37.854649   69.257675
