200
TIME:    0.637, STEP:   637
H   21.670130   61.157436   22.128031
H   31.502762   38.673908    6.014000
H    9.816912   86.514778   64.902580
H   31.224810   81.613991   34.118244
H   10.995092   93.791153   47.950596
H   76.703491   42.039791   53.798733
H    9.111045   55.022446   57.335606
H   11.785174    6.029276   10.980650
H    3.550941   81.554497   38.034607
H   96.886078   69.337883   80.413200
H   26.031172    3.074858    5.507241
H   32.419449   52.619343   31.658390
H   20.918049    0.183481   45.020592
H   85.639481   54.881901   61.396145
H    0.454676   75.000717   42.001781
H   17.728592    9.608955   45.758877
H    2.883201   26.311972   96.156929
H   27.135214    2.252076   36.452499
H   78.234322   15.329190   48.328037
H   91.319290   74.252708   22.081036
H   62.849487   96.576149    7.652286
H   81.190788   63.989006   55.275871
H   83.116898   59.654945   39.610413
H   17.017130   91.678680   90.341217
H   20.502159   28.670732   31.244328
H   18.332460   79.955070   93.844574
H    6.583876   66.762688   65.044006
H    3.621451   86.506531    1.775894
H   27.789467   44.462715   36.013706
H   75.109428   31.399464   84.893005
H   12.843177   68.035347   16.680189
H   24.706741   72.811020    3.377453
H   17.530869   17.528019   78.028374
H   83.287315   64.011047   45.229439
H   28.936726   73.396652   31.199104
H   20.093151   40.870174   84.028870
H   97.659073   65.860329   88.935341
H   13.277899   55.024696   97.317650
H   38.377205   32.184616   53.256245
H   86.275459   38.055927   48.188568
H   80.622437   86.678215   14.701664
H   33.099655   34.782040   28.059183
H   69.553726   78.662003   65.069794
H   36.396835   82.515678   32.946869
H   42.341618   88.407600   58.690468
H   35.473042    3.506640   47.005531
H   87.455460    6.762127    4.883228
H   80.450699   65.544548   33.375626
H    2.433738   13.686624   61.452560
H   47.910484   19.593081   88.917015
H   68.764221   65.471222   12.135363
H    5.962216   42.531109   72.077080
H   62.884029   83.067474   13.117249
H   16.498026   90.561554   87.582199
H   60.394730   67.555779   77.933975
H    0.216396   62.569614   91.648132
H    4.297497   18.247780   45.396000
H   71.746017   67.808357   98.137825
H   19.804066   82.146561   16.728352
H   33.921272   93.759926   59.655281
H   49.133762    7.630829   30.637358
H   97.071556   17.365347   52.109543
H   82.384560   33.430473   71.491257
H   33.745110   65.718735   12.531399
H   77.730202   81.997482   34.163685
H   23.166336   31.984886   39.999313
H   71.345802   14.787865   94.037300
H   95.118233   92.352531   95.131470
H   30.643833   11.218133   56.954910
H   42.951683   48.549438   50.961391
H   58.291004   83.458580   83.900558
H   20.982901   13.386715   41.985840
H   90.093887   32.526516   86.202049
H   20.799156    0.238359   72.130348
H   83.979111    7.298085   48.945793
H   63.348404    5.060764   60.283245
H   93.749588   44.729565   66.530052
H   11.850944   13.199093   34.392143
H   14.548828   47.380608   26.145649
H   62.293640   88.452843   75.434174
H   60.217701   23.392345   95.239700
H   44.093117   61.450661   75.584251
H    9.450825   18.021057   78.664001
H   11.727921   74.841331    6.790587
H   24.770969    3.521950   46.531460
H   35.851810   71.883926   19.518551
H   53.648312    3.611369    2.681487
H   72.030022    3.768449   26.416162
H   77.837204   73.023506   78.600525
H   21.455677    3.842008   50.497875
H   24.601034   38.319962   78.988655
H   81.290070   92.018661    7.030268
H   66.119118   12.384672   84.423058
H   42.225685   80.170700   80.005569
H   35.184296   51.556015   84.474380
H   52.831367   36.585400   10.395604
H   84.690926    0.547713   15.426923
H   95.981201   34.607441   52.352398
H   28.022163   65.801125   54.288158
H   74.107224    4.378223   27.347330
H   27.578947   91.403015   87.633980
H    5.334611   82.662819   63.674728
H   31.408834   22.661179   36.050423
H   40.952126   68.672470    5.927938
H   24.812473   22.255505   37.958717
H    3.140090    7.335869   25.303837
H   84.464554   35.026268   54.411621
H   62.411880   49.517162    3.390279
H   82.885727   35.078388   18.329563
H   17.119787   22.525129    7.480284
H   52.417828   92.616898    1.075169
H    1.934772   73.328552   95.033264
H   50.198818   84.881569   85.300064
H   61.879356   10.838518   64.716400
H   50.601982   98.500137   12.852646
H   97.836761   94.183891   96.844093
H   16.252361   14.032867   88.808212
H   38.756916   46.537231   26.042870
H   33.939198   72.618675   63.918648
H   81.259491   54.598385   64.152435
H   44.698067   24.397579   74.510834
H    1.159400   18.075390   59.865971
H   41.807625    5.078729   35.806396
H   98.228249   53.032810    0.479989
H   65.037148   99.122604   79.682983
H   62.266979   73.214188   17.866074
H   85.518578   51.043594   55.722626
H   66.744904   90.683647   38.355534
H   97.353287   38.113197   75.843033
H   86.987602   22.267660   73.265076
H   64.634705   71.010590   18.582951
H   66.461761   89.988907   18.689220
H   91.141396    1.909760    0.328408
H   81.454018   23.181656   54.593250
H   24.038204   94.191727   38.174004
H   51.784294    1.117338   77.832855
H   69.549980   87.576164   75.102036
H   94.604622   51.825302   76.925583
H   56.690140   49.885551   71.456192
H   43.662994   90.049904   84.426346
H   70.271996   51.393887   27.734146
H   38.962097   53.073299   55.501602
H   42.243359   64.068123   85.993614
H   39.521690   12.156974   84.703133
H   58.962803   56.600578   62.050282
H   60.486279   68.815369   10.832439
H   54.120750   95.039223   44.439301
H   31.812119   58.640839   66.547264
H   75.798431   48.216862   93.997841
H   22.117159   93.009109   75.140327
H   62.227039   68.052216   48.347130
H   50.499157   96.124573   35.711246
H   94.618538   16.994099   89.528419
H   20.404387   10.255336   66.142014
H   29.355087   64.363525   67.935349
H   75.287430   44.513287   66.275154
H   63.466869   72.789680   85.456589
H   51.690365   30.290184   19.025034
H   94.211792    0.238459   87.881775
H   59.228752   40.745422   93.476288
H   57.855618   68.280655   72.860275
H   24.964157   20.998941   32.104694
H   82.308235   17.260824   37.066978
H   25.847206   31.842323   54.213764
H   55.152954   35.559261   13.725350
H   18.753641   51.807396   60.131638
H   68.063675   91.145760   56.430313
H   23.979019   48.995228   64.429184
H   99.467377   26.879154   35.919498
H   44.590137    7.463783   85.932739
H   71.780701   10.355069   35.942757
H   32.448219   50.701206   58.677235
H   45.343555   60.395325   79.253555
H   66.337341   65.042145   83.450066
H   52.985992   92.050079   80.564499
H   13.164477   49.805290   23.667625
H   31.339371   65.323021    3.514954
H    5.248541    9.579468   69.956589
H   65.448799   12.150440   64.491585
H   67.415527   58.713692   91.985382
H   74.169731   99.416016   32.488819
H   27.235241   30.590664   84.109306
H   47.355865   89.748940   13.932091
H   60.126545   25.954987   91.795494
H   90.656898   71.115257   76.761246
H    7.571473   39.573700   85.941139
H   45.175751   97.724426    8.061722
H   71.348259   84.040840   39.418102
H   95.121223   62.943779   71.080658
H   56.832882   56.113728   70.718826
H   66.785316   17.889652   76.466438
H   44.398396   95.718033   19.567690
H   12.918730   26.968798   66.900879
H   28.167873   79.375145   41.314041
H   71.270752   36.522820   20.517656
H   76.297379   11.357606   24.127279
H   12.100183   96.384590   16.866499
H   17.371769   89.515976   35.770496
H    6.619225   12.722733   60.261833
H    3.867079   21.542456   92.233223
