100
TIME:    7.643, STEP:  7643
H    0.457740   21.121311   92.148636
H   89.396103   19.026264   60.022114
H   11.147120   23.771706   33.622799
H   82.759460   17.758904   21.223434
H   26.711142   85.377495   58.471909
H    9.494136   92.927864   35.657829
H   52.399517   77.430130   88.145706
H   19.161568   49.817890    6.438279
H   65.748344   51.450134   18.986870
H   66.002266   26.127153    6.972662
H   89.321793   73.775330    3.537426
H   64.131561    6.794719   48.891685
H   56.381004   99.365875   65.565559
H   76.645699   81.518013   38.876118
H   73.437874   87.322403   83.349884
H   94.214127   43.244324   98.604767
H    9.502508   87.496017   69.160797
H   64.509796   22.930435   34.581711
H   64.303146   98.984802   66.023117
H   86.601456   43.504719   36.703560
H   10.730255   95.331970   49.797825
H   95.122192   54.230179   68.406235
H   83.697136   32.462196   13.674592
H    8.912661   28.260714   39.438148
H   56.226509   80.032227   92.985207
H   11.569958    0.787718   71.642906
H    3.014092   24.765940   51.619129
H   87.647606   13.189094   19.408815
H   77.360390   42.524494   95.884087
H   94.060333    1.674944   90.985527
H   16.855055    7.418703    4.689211
H   48.340908   41.342579   91.713295
H    8.719093    9.284395   86.338753
H    1.036143   73.287392   49.763412
H   90.742393   80.987694   90.057770
H   37.030277   84.061142   95.397560
H   12.862493   24.632654   10.703771
H   48.092255   19.080448   61.785355
H   22.458035   14.889158    3.649179
H   43.308128   96.670853   39.369865
H   12.906828   18.433516   22.410246
H   56.103554   71.575180   70.147514
H   77.062897    9.335958   53.534557
H   91.312714   40.929893   28.027702
H   93.682304   30.338680   10.141998
H   79.467278    8.693973   14.211794
H    1.446480   40.490974   98.828682
H   56.654110   74.090408   41.483059
H   88.443428   99.457710   39.591751
H   86.206299   47.064785   49.134277
H   42.976788   31.761618   33.994644
H   76.578217   54.525707   72.321411
H   67.411980   66.325439   58.977058
H   99.700836   82.501892   69.080887
H   32.248367   28.400608   65.357376
H    3.115106    4.494029   32.441040
H   80.784561   69.010857   82.900291
H   56.942062   55.100456   16.688635
H   93.060600   61.713123   24.732906
H   54.658592   15.254010   46.225487
H   41.827282   23.137096   18.488083
H   27.652931   56.802109   49.533585
H   92.943657   85.738190    9.367004
H   67.872063   83.397720   19.630795
H   35.686241   50.411144    7.328033
H   31.825726   62.317162   98.097656
H   74.356171   12.601460   36.066936
H   52.411507   54.648918   31.582199
H   37.828545    0.609103   80.877411
H   85.250114   32.532444   85.632919
H   79.332375   75.372360   70.468910
H   43.884747   97.821678   16.275377
H    8.652868   40.258221   65.785950
H   61.952656   65.692688   49.032135
H   30.641512   39.569103   80.799149
H    6.340237   97.417015   81.652077
H   60.930378   64.280586   26.290724
H   91.062363   50.964611   36.534191
H   28.023016   31.068821    2.952213
H   24.704990   92.668602   62.469917
H   60.439354    8.352700   36.794571
H   14.821490   94.036621   47.590481
H    1.310997   34.936069   57.824638
H   75.974846   66.187256   65.346245
H   80.179382   70.804344    6.849877
H   75.389145   89.794205   72.536285
H   77.613472   47.644112   87.991020
H   78.949486   93.473389   16.331917
H   14.297532   68.622261   65.680916
H   90.594757   94.820938   97.436752
H   36.805775   86.131462   94.867966
H   43.803501   70.306061   79.155098
H   75.384567   56.848545   10.049502
H   85.932411   76.864830   42.154491
H   24.449558   65.117264   91.715088
H   25.202087   93.918823   72.677971
H   55.936821    6.295858   97.632454
H   23.524561   64.633278   25.448553
H   44.618065   69.806526    4.855152
H   13.948158   82.501419   61.466763
