100
TIME:    4.290, STEP:  4290
H   27.206722   28.606384   95.218399
H   81.996407   37.332855   48.604584
H   53.495903   82.544060   72.986671
H   82.196671   55.902519    5.012805
H   56.745911   16.619921   49.384628
H   61.500240   96.560417    3.598736
H   28.131855   51.019848   25.936594
H   82.700752   59.740459   14.299822
H   48.171547   73.827347   30.046366
H   57.605858   77.981407   75.682617
H    1.209683   38.859852   26.515305
H   92.102287   38.726036   87.562508
H   70.313370    2.164780   98.746094
H   42.664970   91.852882   83.710983
H   32.684486   86.827515   44.556400
H   29.033409   36.510063   76.933533
H   79.130806   65.719498   63.923973
H   92.810509   86.077843   50.814175
H   12.086563   58.325996   89.376556
H   76.936699   14.713198    8.415720
H    9.702026   29.134289   40.805321
H   73.666824   49.779022   53.945145
H   28.466347   59.731926    9.607623
H   20.454048   88.133484   88.460129
H   76.149323   45.941635   68.222450
H   26.990080   99.830292   87.006264
H   92.147270   64.149124   85.088905
H   70.563324   56.682404    8.574840
H    4.452500   38.314053   54.381325
H   65.490860   84.661980   24.431034
H   84.893990    6.748576   69.967796
H   36.630322   33.983444    2.117277
H   72.540016   54.605309   84.274033
H   59.364349   80.569885   91.020927
H   74.133224   34.629112   85.959549
H   45.559772   21.440388    5.941026
H   91.265915   47.427231   46.500477
H   86.678535   80.443275   25.175137
H   63.992611   87.946526   28.579077
H   59.122581   10.567496   75.563293
H   42.060226    3.385833   43.416241
H   46.060379    4.394568    4.349613
H   48.193119   89.225800   11.345453
H    5.413904   84.666168    0.188595
H   84.529686   62.627586   23.217768
H   22.740795   44.741993    0.587130
H   75.250290   58.142784   66.647331
H   56.468525   39.555573   34.018791
H   90.432114   77.151459   73.345673
H   15.851726   96.029884   83.616066
H   43.217319   55.471809   98.649887
H   13.618670   65.660309   92.430786
H   97.859505   46.883606   53.713680
H   77.344749   37.210381   21.121998
H   99.218323   34.553593   36.835377
H   98.933975    8.021078   46.585083
H   68.217911   65.760551   64.002144
H    6.613515   71.750023    3.053859
H   28.619902   20.031879   82.137886
H   75.922394   57.532772   41.592781
H   30.317587   79.066551   79.913368
H   46.654137   88.011368    1.243921
H   65.309822   14.540988   39.292290
H   37.626015   65.132629   10.664738
H    2.598924   18.208450   95.077721
H   37.803535   29.004097   99.842087
H   43.374100   96.679871   74.183273
H   84.026024   62.886978   71.289406
H   70.716507   41.534286   91.170837
H   17.302134   63.918930   92.699615
H   85.805077    3.507915   10.685684
H   20.237316    9.148257   70.716484
H   27.275831    6.106640   51.754646
H   35.770687   77.900505   48.256493
H   69.007942   34.755230   26.609434
H   27.075556   82.521935    7.267507
H   56.459862   54.718464   66.919746
H   33.532330   70.209053   51.361572
H   67.232185   40.917645   65.550713
H   89.135406   75.312157   51.333855
H   94.822433   73.663681   36.391644
H   63.210098   72.244522   28.050722
H   89.224617   78.866150   38.501354
H   45.294861   79.263496   71.591019
H   43.442337   80.543068   31.884933
H   52.559620   66.635567   39.693924
H   53.674126   91.434967   28.107389
H   25.009760   61.826454   51.128777
H   44.713974   55.311668   93.104134
H   87.044968   32.773582   77.573395
H   99.587036    5.079962   24.058756
H   95.712982   18.130905   15.270746
H   60.450813   56.239563   50.756817
H   61.873531   73.453964   16.071695
H   82.418587   65.458549   14.666800
H   48.258011   26.323555   45.864952
H   22.082294   13.874747   90.466873
H   22.613089   52.764465   87.388283
H    4.347508   55.342800   85.704338
H    5.680309   68.542549   84.470963
