100
TIME:    4.624, STEP:  4624
H    4.620546   97.977058   94.912613
H   72.771858   55.432846   69.664917
H   59.237038    6.573428   69.067513
H   82.252731   42.142143   86.705940
H   53.754303   43.391495   40.328262
H   56.319714   96.198570   36.676296
H   10.627069   73.573044   52.055828
H   56.449013   88.636871   83.633675
H   39.961189   41.714706    9.022083
H   48.478142   82.777153   88.760071
H   70.141815   52.299152   94.342575
H   79.356102   55.467827   63.787636
H   49.000076   81.967476   65.558105
H   26.127491   90.823402    9.127795
H   36.746346   56.992981   28.500359
H   15.603027    7.297104   49.208923
H   52.272591   87.812546   94.329308
H   99.949257   69.828270   39.234325
H   17.288750   72.337128    6.973632
H   67.936394    7.620234   31.156015
H   89.882011   95.882965   31.741272
H    5.687729   50.222412   25.501938
H   24.006966   57.015526    0.051169
H   89.421768   92.139282   63.655739
H   64.203278   19.452911   70.689125
H   25.467520   89.958496   55.597614
H   63.347252   50.263912   91.714272
H   42.381992   72.272400   19.615839
H   11.715558   68.617455   38.592567
H   78.298203   76.395561   50.983101
H   98.037697   36.698658   43.542778
H   57.719372   24.756348   71.197212
H   96.065163   30.167997   14.363393
H   73.476379   49.960693   76.949669
H   65.831131    9.381203    6.298645
H   74.594162   47.600391    4.890204
H   23.301107   35.195786   72.818466
H   72.872292   74.332649   48.743603
H   49.893322   80.668816   96.212677
H   27.664656   79.300224    1.840608
H   19.234005   14.845288   51.285137
H   16.042107   19.385122   20.040422
H   51.070057   91.228699   35.470398
H   84.085587   90.262054   32.845314
H   55.557194   49.450752   51.798969
H   18.431759   51.112537    1.944919
H   77.859665   76.306480   69.852989
H   56.486362   42.995667   54.684837
H    0.196843   49.489346   60.022827
H   22.856777    1.111586   60.254417
H   43.191837   23.226315    2.171135
H   29.849543   34.666470   70.505920
H    4.787005   48.820251   34.314098
H   69.608360   31.759743   35.859947
H   72.625122   63.824970   39.676640
H   99.351883    7.669724   35.214935
H   89.393600   56.123192   95.768227
H   81.743057   40.208183   94.450790
H   54.960831   34.144989   56.496971
H   53.881481   83.204163   32.093025
H   51.386353   63.532696   53.871574
H   34.799828   84.902542   86.132812
H   87.983864   91.749313   16.388908
H   60.562523   66.952057    1.595631
H   15.856156   91.532745   26.182337
H   17.285568   12.400034   19.590292
H   16.576307    8.227246   90.308395
H   60.954460   81.988419   87.256538
H   87.361465   17.535172   70.224487
H   24.068926   80.716797   91.996307
H   75.199394   80.782806    6.678717
H   92.697418   98.063202   95.169182
H    5.497525   89.584938   43.190086
H   28.416531   56.764713   28.410973
H   85.112679   35.231747   51.928799
H   34.972481    3.927255   84.792770
H   86.784286   25.768436   72.826515
H   49.224255   48.368999   69.807320
H   83.250282   39.936581   69.276207
H   72.755463   57.122013   22.559380
H    1.356513   77.119064   56.354382
H   88.269356   74.425797    0.121003
H   10.352045   84.448914   70.311005
H   68.272614    7.844486   41.085670
H   27.179232   59.652245   99.507576
H   44.871647   78.902687   62.887802
H   75.981224   67.150452   44.033752
H   30.385225   35.085457   47.655556
H   51.645126   36.714775   90.372444
H   57.515659   19.031044   89.514343
H   13.255851   23.114922   31.112223
H   20.427374   43.248688   21.634920
H   81.860939   66.262276   76.585556
H   94.154526   93.712296   38.591198
H   76.644325   35.540047   22.340870
H   75.845016   13.135115   28.613518
H   95.571312   33.042370   71.258408
H   23.838781   55.608276   82.042122
H   88.436523   56.782543   57.729431
H   26.425631   59.971546   52.296238
