100
TIME:    5.123, STEP:  5123
H   70.874916   52.216103   94.455765
H   58.990273   82.471848    1.126599
H   67.816055   42.472733   63.211727
H   82.336487   21.583012   59.355316
H   49.284805   83.388550   26.798676
H   48.579945   95.657967   86.094139
H   84.473534    7.266307   91.078278
H   17.228600   31.806507   37.817242
H   27.694817   93.737732   77.612953
H   34.841225   89.942055    8.299398
H   23.726044   72.377625   46.275944
H   60.312408   80.480263   28.267893
H   17.157761   51.792656   15.974854
H    1.420985   89.285347   47.103294
H   42.814812   12.420590    4.513541
H   95.538437   63.652725    7.787097
H   12.146004   20.817867   39.755249
H   10.619771   45.549686   21.936117
H   25.060879   93.268387   33.261456
H   54.492523   97.022743   65.130287
H   60.270638   46.206978   18.197628
H   53.527344   50.884842   83.007523
H   17.344597   52.957191   85.774658
H   43.057575   98.114227   26.594212
H   46.355743   79.880371   74.374367
H   23.192797   75.209915    8.674555
H   20.316481   29.519428    1.613189
H    0.278549   95.564041   36.111862
H   22.566078   13.890797   15.005348
H   97.432526   64.045433   90.652748
H   17.677002   81.444611    4.063484
H   89.226662   10.970607   25.002251
H   31.214134   93.659691   59.317253
H   94.559921    4.230400   55.927040
H   53.427704   71.660538   36.682854
H   17.971277   86.683754    3.320433
H   71.160675   16.920288   12.137588
H   52.247768   65.203300   83.957329
H   28.828815   69.795830   47.855301
H   80.663734   32.584938   41.101437
H   85.131256   31.965673   63.041363
H   71.194420   41.781029   43.480541
H   55.368237   94.221054   71.512703
H   52.221836   98.632141   81.635666
H   12.273771   29.764404   94.499046
H   11.993414   60.630207    3.973376
H   81.758102    3.443462   74.642281
H   56.513012   48.135208   85.560158
H   14.781960    8.163624   40.115669
H   33.322407    8.706686   25.355026
H   43.153767   75.050781    7.431551
H   54.100395   88.363297   37.746857
H   15.137618   51.713623    5.332644
H   58.052063   23.616425   57.880028
H   32.894562    7.559774   43.921520
H   99.976242    7.144824   18.227798
H   21.028282   41.724861   43.227440
H   44.586075   93.083244   81.598129
H   94.317421   55.228531   18.187134
H   20.954151   21.558620   17.900276
H   82.863190   40.328617   14.967122
H   17.090952   80.257919   63.556824
H   21.860407   57.698898   82.170959
H   94.826515   69.670303   88.049637
H   35.662781   51.679180   72.651649
H   86.632103   87.593651   49.095070
H   76.540466   25.478546   14.400539
H   26.485268   10.526801   11.111625
H   12.230757   81.680229   38.927338
H   34.178185    5.813546   90.945557
H   59.354378   46.831375    0.692470
H   51.551781   81.502457   31.703484
H   72.962051   64.899910   30.394531
H   17.432438   25.184673   98.762871
H    9.172418   35.943668   89.755829
H   46.770584   35.908821   51.215885
H   32.089809   82.518990   81.651299
H   72.668182   15.739571   97.362877
H    7.180555   38.470860   74.842140
H   48.283630   29.943501   79.570251
H   11.121006   82.281448   86.178947
H   25.710289   77.684647   58.395531
H   41.916443   92.794006   17.831938
H    2.604609   50.545456   95.510620
H    2.881045   28.438095   51.134972
H   33.385723   97.229912   97.539734
H    9.308325   30.869095   67.827927
H   38.417755   95.135269   42.466522
H   62.000351    8.932133   86.291267
H   13.396297   98.499802    7.353275
H   33.676964   50.058170   41.650188
H   57.349018   80.778046   31.141523
H   13.847524   81.237221   15.174030
H   42.385551   23.980089   72.235191
H   68.017509   90.842125   33.806156
H   17.060425   93.430511    2.839182
H   55.962578   61.679134   42.560730
H   25.669981   59.856964   74.054893
H   64.665192   58.933537   15.931633
H   57.418972   47.168377    4.225259
