100
TIME:    6.334, STEP:  6334
H   88.980057   41.162041   93.347061
H   25.545273   48.094967   77.485146
H   88.641205   29.596813   48.992603
H   82.539749   71.689362   92.974365
H   38.437988   80.455460   93.965271
H   29.796658   94.346001    6.023159
H   21.005711   89.039375   85.780128
H   22.046387   36.573223   26.626827
H   97.926064   77.305069    1.383403
H    1.755520    7.330742   55.719456
H   11.081772   21.104544   29.626888
H   14.088707   41.181187   42.067619
H   39.881149   78.560753   95.643486
H   41.458656   85.552711   39.260647
H   57.538765    4.248718   46.299969
H   46.847870   57.734230    7.263430
H   14.764627    0.916648   49.997353
H   36.516758   86.626740   79.955605
H   43.919781   44.073326   97.062897
H   21.868919   71.300819   47.580772
H   88.408188   25.647511   85.327141
H   69.627090   52.492462   79.879684
H    1.174286   43.108208   51.127670
H   30.537708   12.601290   36.655376
H    3.044800   83.841995   83.317909
H   17.672377   39.410919   94.796608
H   15.890621   79.180984   25.643263
H   98.097763   52.089409   76.142502
H   48.897789   23.761925   57.760345
H   43.866291   34.073479   86.923721
H   65.340370   90.037712    8.253014
H   65.689880   77.508789   12.893913
H   16.515232    5.057161   68.413696
H   45.728767   93.249496    4.910580
H   23.320526   80.097389   10.415864
H   23.241316   81.534615   99.512154
H   87.311958   72.570435    7.559751
H    2.197927   43.038967   69.413307
H   77.712952   43.408684   30.500280
H   66.600525   19.215187   36.380238
H    2.368108   73.516457   91.571999
H   66.418945   66.441925    3.322336
H   65.797699    1.483597   58.984558
H   74.895615   18.958761    0.041222
H    7.228550   81.984299   98.127304
H   96.365074   83.728195    8.893782
H   91.219040   69.302383   86.265190
H   56.577686   60.608124   60.489948
H   50.177322    7.868757   91.807816
H   58.724331   27.139746   40.658669
H   43.066669   58.136780   20.197052
H   12.954370   75.992020   58.248512
H   40.258915   58.735413   34.999691
H   30.011101    3.855203   11.318576
H   36.472862   13.686118   54.223225
H    1.484749    5.870970   77.002487
H   97.800835    6.781610   58.403572
H   54.412750   78.719246   50.406601
H   89.826233    6.396243   25.221550
H   41.039719   14.639874   83.456566
H   59.254322   84.011124   20.547886
H   74.111885   68.986099    8.759454
H    4.075203   75.062172   99.129059
H   77.984726   76.267090   55.174091
H   83.730530   54.958897   85.426598
H   12.239319   27.391045   20.699354
H   79.379623   67.342804   72.867569
H   42.833138   79.785255   69.004425
H   72.588966   94.665497   62.976742
H   58.708252   66.725517   88.395538
H   20.899506   64.435776   86.168282
H   51.699276   41.311951   20.367252
H   94.002090    5.002060   99.341858
H   90.774071   48.539791   26.808340
H   67.556999   37.671398   81.557999
H   75.399178   13.522335   69.730530
H   42.045498   77.577293    3.075963
H   29.563168   36.555443   64.244576
H   65.249443   34.913769   88.349846
H   88.900070   63.976723   75.241447
H   34.819069   94.809799   58.557255
H   16.595629   85.547775   57.101254
H   18.514160   13.045173   33.161636
H   85.918510   54.173363   84.904045
H   43.916344   52.690765   33.742035
H    5.511170   41.712746   81.635315
H   90.188255   42.819389   25.573034
H   57.897148   98.220337   29.904083
H   87.130966   41.504814   76.386848
H    6.327556   48.679211   50.641098
H   83.236015   15.450035   67.224289
H   46.950756   71.856735   54.211800
H   91.475189   17.570156    8.822520
H   59.423038   97.449654   53.890869
H   47.081490   82.368576   61.634617
H   17.084061   45.608429   40.289719
H   59.839134   31.174829   72.915131
H   26.051241   99.865921   51.725273
H    6.975988   64.153954   14.497787
H   32.640163   16.094593   87.566093
