100
TIME:    5.970, STEP:  5970
H   13.595858   74.542778   93.680313
H   35.597481   28.369230   54.534046
H   82.381622    3.410147   53.266560
H   82.478653   86.685699   12.926368
H   41.698303   51.279251    3.834760
H   35.442501   94.740349   69.976158
H   40.082409   64.462044   57.314854
H   50.656067    5.083481   60.049221
H    6.873940   12.302310   24.296305
H   11.698923    2.103894   41.467381
H   44.940170    6.458536   64.687920
H   27.982536   22.935642   67.977959
H   63.108810    0.572093   31.812431
H   59.482033   86.674660   11.559078
H   53.115395   36.762711   63.801815
H   61.483185   89.570900   37.479218
H   44.035286   76.839272   16.860998
H   28.732550    4.338722   92.574745
H   38.251720   28.802057   77.884247
H   31.674858   79.032265   22.797937
H   10.008446   61.885883   95.208061
H   34.730057   52.009247   10.877594
H    6.034644   46.068596   61.541794
H   64.359917    8.246798   63.690441
H   16.063133   12.708397   80.629677
H   19.331694   50.172180   29.025879
H   47.279465   94.310623   18.420027
H   28.810818   35.099113   64.112106
H   40.983055   90.737335   74.967255
H   29.908798   43.082390   57.986343
H   51.013573   57.396244   37.051537
H   42.706608   87.567444   46.591240
H   90.875725   31.688196   35.621704
H   30.349041   26.607750   20.244406
H   32.374191    7.633060   88.259888
H   91.599792   53.024910    0.656643
H   52.399185   85.900513   78.878029
H   17.242249   49.701229   43.727329
H   93.075867   51.340080   65.774940
H    0.886553   53.292454    7.741186
H   27.244057   61.025726   82.996315
H   97.094788   65.014496   84.738274
H   62.663944   99.300262   32.693756
H   98.139938   12.849142   64.449913
H   38.802486   96.347458   66.979355
H    1.063553   76.785446    7.414977
H   88.375290   49.507217   82.771599
H   56.558247   56.859039   37.967670
H   39.538254   38.014175    6.327357
H   51.086712   21.598570   66.113205
H   43.091663   93.278198   16.360489
H   95.263954    9.767727   82.142677
H   32.707981   56.624817   56.141750
H   38.439598    9.794724   95.256798
H   65.454674   81.787460   51.126759
H    1.031387    6.253862   89.393906
H   74.723137   17.285210   23.784248
H   81.517242   13.094641   59.782089
H   61.116859   91.015800   53.164726
H   65.058975   86.662003   93.809593
H   36.293262    0.940204   48.927067
H   87.030952   72.374161   25.230125
H   79.364311   99.900551   24.089630
H   52.989609   74.284241   65.057495
H   69.284058   84.030441   51.529316
H   34.599297   45.486626   99.176323
H    8.583939   54.759029   55.294083
H   67.976997   58.968113   51.603123
H   54.447491   20.820198   85.804626
H   51.335052   48.416512   89.162018
H   32.459129   89.201950   90.533882
H   81.713028   53.392334   93.717117
H   17.736134   23.005997    8.675423
H   98.788780   71.576744   48.436058
H   50.007946   37.152081   53.964737
H   66.795723   90.193779   94.224548
H    8.991893    9.105742   96.630440
H   12.461787   60.357964   44.141182
H   47.795170   35.982952   84.289726
H    6.750900   83.805214    6.600363
H   27.695810   91.044052   36.801456
H   89.277328   83.187103   87.550224
H   95.489891    6.958405   98.495529
H   60.874969   23.025013   18.150227
H   61.639793   75.458809   69.027863
H   13.889576   28.341393   56.358154
H   65.877525   69.285149    8.216162
H   52.043022   27.347860   33.678162
H   79.577255   61.772087   79.363899
H   38.510464   63.656109   37.630386
H   68.339653   95.794922   59.537273
H   20.018442   44.480087   47.277382
H   68.141998    6.647825   80.673843
H   24.245213   75.366158   29.346865
H   53.374397   14.972927   53.269993
H   87.019089   59.982697   59.090683
H   88.732079   10.286685   93.848907
H   26.753847   81.853653   59.031822
H   24.315857   62.584621   44.987564
H   10.031610   25.435368   22.631290
