100
TIME:    0.486, STEP:   486
H   84.456459   77.452675   98.701065
H   87.751228   31.094856    8.657081
H   88.114594    8.868939   17.633430
H   81.558182   12.626616   13.523517
H   90.817993   11.712564   52.527519
H   20.480057    0.684699   26.875505
H   27.499668   94.154045   28.458605
H   81.687653   30.647152   63.572205
H   41.681190   39.566544   69.496254
H   61.558968   23.363892   26.721033
H   55.048492   85.797897   92.935600
H   37.291592   48.051277   58.334892
H   12.348365   32.303848   76.824028
H   31.017933    3.578817   94.224220
H   86.413521   26.612143   27.410364
H   81.982819   69.229012   92.697739
H   84.992882   14.136948   17.604158
H   11.529971   71.066437   82.697556
H   52.832092   98.739960   88.967438
H   79.493813   95.342224   49.343925
H   35.436615    7.833948   44.051941
H    8.948701   44.741402   77.874031
H   79.255226   90.669609   18.444893
H   73.886856   42.510563   70.981125
H   12.201769   47.631062   40.147415
H   44.430546   13.128484   43.620461
H   20.170069   22.274197    9.610235
H   91.533928   79.124023   82.839066
H   21.738876   93.185966   34.198090
H   19.628866   78.811264   22.024033
H   35.219608   65.624672   70.953911
H   96.443817   39.083656   54.272621
H    4.590397   32.923653   41.579674
H   98.636421   29.183594   51.276543
H   68.691536   22.182449   54.321434
H   14.810861   22.663561   18.972075
H   26.413067   86.737160   46.760143
H   43.902435   50.059032   56.735989
H   28.871090   70.133324   95.545486
H   17.418015   66.686409   76.272209
H    2.029911   72.855476   53.791172
H   87.942253   33.669716   25.633108
H   15.427165   66.414337   36.577522
H   48.324722   20.916288   28.250397
H   14.498932   12.716777   97.695374
H   71.744438   72.340385   85.224144
H   41.211781   51.958820   31.776068
H   56.265369    0.387155   98.648895
H   79.235466   92.199142   25.086843
H   36.082760   38.146626   49.672600
H   43.507542   22.723562   58.541187
H   28.750978   18.641441   42.157448
H   18.960558   24.826721   74.644814
H   65.434174   99.272408   53.262043
H    2.068445    1.109705    4.530088
H   94.174332   12.021181   76.082214
H   27.062187   75.523567    2.210006
H   89.870300   30.990227    1.036295
H   28.606735   59.303375   74.173752
H   26.947845   65.144562   49.786583
H   90.357620   55.968346   76.502777
H   81.662048   23.421738   73.366028
H    7.197476   74.011879    0.216410
H   76.412727   44.438202   13.944693
H   51.613304   22.027824   40.821472
H   71.489632   18.112598   74.921974
H   48.576195   65.162445   90.525864
H   46.794502   45.332382   89.436211
H   81.124779   14.865456   29.751278
H   40.231422   72.589012    0.708780
H    6.599040   62.337055   56.318607
H   33.894352   35.396217   92.204109
H   75.303543   94.267891   49.287540
H   19.493713   18.624323   74.324181
H   85.603683   29.335218   38.240406
H   37.148373   38.720650   63.226665
H   11.080256   84.421501   99.633728
H   54.813492   18.942028   41.280598
H   84.847832   52.078953   23.107529
H   75.691147   82.486244   79.051880
H   20.392467   34.309551    9.035967
H   77.788582   47.401505   46.140396
H   48.546230   15.369269   76.188995
H   83.602264   53.749241   19.039406
H   28.665861   18.483704    0.640315
H   40.107388   26.905434   75.532524
H   99.613548   68.016762   46.717495
H   63.778809   66.383675   90.687660
H   65.768745   67.112450   24.224396
H   23.367218   89.288406   41.586224
H   43.911686   99.674927   43.725170
H   14.245989   32.057457   42.783791
H   16.466583   42.192795   56.513176
H   94.201088   42.712402   59.585941
H   48.189579    6.195969   27.253895
H   34.063217   76.539665   42.346504
H   24.025858   95.571098    9.238583
H    8.649585   20.375671   48.259628
H   85.560234   38.945248    4.342552
H   69.423721   66.221581   50.877426
