100
TIME:    0.796, STEP:   796
H   63.492104   49.024025   98.417252
H   79.128029   47.903645   28.211607
H   93.440826   31.170956   13.993523
H   81.610214   99.853844   96.531242
H   88.041351   36.560432   44.121910
H   15.672966    0.347309   57.576832
H   11.252703   15.086672   52.701008
H   57.322266   57.465160   35.108078
H   34.060799    9.761274   49.982376
H   53.087135   27.813850   38.861153
H   26.213043   98.271500   63.073769
H   25.458935   63.590065   36.268394
H   92.629059   13.548429   46.012726
H   15.668367    2.623016   17.815617
H   90.183510   98.922821   12.508835
H   69.518677   42.113453   66.965317
H   60.069328   34.637741   45.828804
H   18.154251   55.991211   71.950485
H   57.659286   11.745303    5.300200
H   71.102394   88.842896   70.492760
H   17.040771   76.973419   35.639236
H   38.673573   45.150566   51.478252
H   75.116280   88.148399    9.574968
H   45.084518   46.228519   47.957474
H    1.115147   23.045719   42.435684
H   43.009113    3.891999   14.564374
H   93.438660    9.387578   15.761892
H   65.375786   93.593781   93.084732
H   28.479446   21.311304   19.544861
H   31.514738   71.138840   46.668026
H   47.414127   93.424202   46.422966
H   16.016912   30.519585   25.574348
H   26.426605   10.243361   69.506920
H   11.734939    0.774166   38.216393
H   60.986000   98.748512   73.198547
H   41.764435   47.015209   17.905409
H   56.145115   75.384621   71.187019
H   31.090622   44.385128   78.612495
H   14.934620   63.515739   65.834946
H   88.219063   37.664333    0.661279
H   80.843460   83.493752   61.097004
H   60.081230   47.583672   40.197468
H   18.097250   68.273315   58.968040
H   28.528940   26.111258   58.561531
H   87.608269    0.486149   24.223558
H   67.785240   78.168022   86.439812
H   44.485096   68.681870   34.424995
H   56.281925    3.578992   17.829863
H   88.298576   66.523483   12.720696
H   42.584454   42.865025   27.991615
H   43.483891   92.794548   61.809772
H   43.816490   89.876099   21.805656
H   25.391298   26.624207   56.640610
H   58.256527   94.215797   66.941849
H   77.390701   28.286100    7.160685
H   94.562210   11.695387   65.529083
H   46.713905   66.578712   31.693764
H   66.786804    1.714919   93.051590
H   53.054901   72.401367   50.374638
H    6.491735   88.970703   40.969444
H    9.912676   41.552986   52.332474
H   70.659546   20.536301   59.340126
H   28.224754   52.872505   78.949318
H   97.698738   46.124527    5.527258
H   63.918983   97.268486   69.691933
H   52.445747    2.701629   93.251595
H   23.704279   75.881134    5.492656
H   25.380775   63.061264    4.256003
H   96.573692   92.590851   10.307863
H   46.510796   88.179832    0.056898
H   96.754829   41.242619   52.600651
H    8.333664   25.107979   14.900579
H   55.091293   78.932503   41.338398
H   12.670653   99.006592   55.899956
H    0.551138   29.776312   61.740162
H   44.477856   58.589958   42.368740
H   39.226582   57.553825    5.119053
H   69.377853   98.671822   58.401646
H   99.705467   51.170750   26.564140
H   60.488205   65.604073   52.345032
H   26.458981   37.516644   27.563297
H    1.047149   49.426041   20.216938
H   68.160606   20.543024    5.714962
H    4.926585   80.276344   90.724281
H   13.570627   99.092712   70.589211
H   32.971844   38.292919   97.059776
H   20.317770   45.477242   61.499447
H   68.769196   41.564186   87.466377
H   72.201851   49.851860   21.687813
H   95.959305   76.530991   52.669140
H   56.598148   16.413904   50.271801
H   37.182896   55.372734   48.689476
H   36.356255   51.480591   80.495415
H   24.163980   61.517410   80.488304
H   42.830235   78.429077   34.376823
H   59.667923   64.297844   26.334694
H   99.419998   13.361062   91.410156
H    9.787795   23.015137   43.299988
H   70.792473   40.281536   78.373970
H   88.675735   58.258907   21.019812
