100
TIME:    9.805, STEP:  9805
H   54.249664   22.856499   90.169266
H   29.685425   36.182980   96.341118
H   48.309795   79.315102    8.243837
H   83.122345   28.685293    2.716341
H    7.338057   58.670975   99.852959
H   75.973267   90.585609   49.768211
H   39.089939   23.418482   57.216946
H   49.232635   36.858807    7.930557
H   12.602257   43.581238   82.898018
H    6.947557   57.170277   91.626137
H   88.217743   60.766525   95.279793
H   81.612022   15.164274   94.998894
H   18.517487   68.504097   50.713455
H   69.596619   74.854134    3.404000
H   99.697517   94.201904   79.376976
H    7.284460   54.147812   19.140095
H   35.647316   30.495338   65.976181
H   10.741340   17.727394   59.635315
H   97.985428   89.684402   79.933990
H   28.352093   97.593231   83.902611
H   82.433624   80.099617   91.117905
H    2.395248   57.100266   84.291977
H   54.831322   14.886562   51.818359
H    8.031620   54.124481   78.870270
H   78.901718    8.574287    8.947697
H    1.373153   37.052109   68.188530
H   16.582493   34.894329   94.510239
H    5.224718   14.103963   90.872917
H   24.371563   38.678013   93.685043
H   76.960518   48.165848   62.857918
H    1.942928    1.289633   33.638702
H   84.851089   81.609177   91.566139
H   61.009727   51.101700   81.108788
H   92.386200   75.152977   58.682152
H   36.936516   17.293861   21.596823
H   24.968969   53.404621   88.601723
H   20.226414   45.455330   81.061050
H   58.731297   79.519646   14.353316
H   31.199657   67.782738   94.135460
H   39.672047   94.271133    9.471238
H   65.149139   92.616776   73.346031
H   73.901680   80.056992   80.515617
H   95.668976   22.306961    9.698658
H   53.269749   77.225807   39.413761
H    6.127487   45.022831   95.144058
H   51.565514   49.926189   22.995249
H   18.349491   58.071491   19.590006
H   56.786068   96.358322   75.255020
H   51.638084   20.400539   53.349922
H   31.589819   79.979820   97.966866
H   45.877811   23.263222   52.104004
H   81.651825   53.908470   30.398993
H   12.248020   78.861450   33.413002
H   49.627510   47.228271   64.483772
H   60.106270   17.867895   83.732529
H    5.807875    2.219815   58.841446
H   17.847000    6.627134   88.524467
H   95.955765   50.925987   61.000999
H   63.580379   53.068336   58.756199
H   11.990755   81.433243   84.733070
H   78.211212   22.593668   49.927830
H   50.919304   36.678513   51.711342
H   39.739826   38.236191   61.125473
H   16.331497   95.174973   60.936943
H   21.499477   77.734200    8.665286
H   99.013550   54.837975   25.932978
H    0.894458   87.346283   40.448132
H    3.067239   78.295601   34.938309
H   45.582748   45.261566   45.280956
H   29.159424   41.123463   81.047379
H   10.670650   28.264141   44.539162
H   65.848137   26.036522   74.747467
H   67.688065   33.314877   10.347492
H   14.365299   28.862179   20.573679
H   34.786736   42.752590   44.723225
H   57.456757   35.981159   36.177338
H   57.286079   77.153000   64.639519
H   92.628761    9.604591   55.944801
H   31.698774   24.718342   27.081804
H   18.679192   74.894264   76.211769
H    2.764635   30.719584   66.014931
H   77.054527    8.065461   66.716454
H   38.061188   71.092567   63.722683
H   24.717808   51.194534   67.881279
H   74.909882   35.558205   97.269608
H   25.628254   69.209908   22.672337
H   22.008699   90.448463   91.083336
H   13.719177   20.471594   93.919968
H   59.166508   48.245247   47.998543
H   99.444641    5.870461   74.720261
H   25.284323    2.872482   40.525780
H    3.769609   32.908722   20.351145
H   13.972796   21.713194   77.240288
H   91.828285    7.799389   92.620079
H   87.067474   71.458138   41.393288
H    3.774395    8.543900   61.007919
H   84.327751   30.366501   73.293427
H   19.351389   71.610703   82.039207
H   41.625328   79.142555   23.765873
H   48.236908   27.023335   53.193829
