100
TIME:    4.888, STEP:  4888
H   86.767250   73.766853   94.670914
H   65.480598   69.738617   86.309937
H   63.774940   25.565952   65.969734
H   82.297043   31.265610   72.236214
H   51.389679   64.552261   33.169937
H   52.224926   95.912560   62.822109
H   96.790810   91.398361   72.700974
H   35.699135   11.476626   59.394886
H   33.471565   16.332260   92.404442
H   41.263420   86.567802   99.096741
H   45.585175   62.921833   68.911789
H   69.281273   68.700859   44.995522
H   32.153641   66.003242   39.325684
H   13.056485   90.009682   29.219042
H   39.956917   33.411194   15.810135
H    4.987468   84.206619   27.294643
H   31.043343    5.274841   18.362272
H    5.594592   56.983059   30.082193
H   21.400658   83.410980   20.881426
H   60.823280    2.013819   49.130379
H   74.215874   69.602203   24.575897
H   30.997665   50.572876    3.019932
H   20.482185   54.868431   92.498062
H   64.893326   95.302948   44.047890
H   54.760895   98.515854   72.638832
H   24.264059   82.155640   30.773039
H   40.581200   39.288754   96.951088
H   20.106857   84.595032   28.343195
H   17.456291   92.569847   26.113308
H   88.421371   69.861626   71.970650
H    8.427920   60.371082   22.655937
H   74.388557   17.463074   46.757393
H   14.661077   10.853209   38.146599
H   84.630798   25.766602   65.827477
H   59.268997   89.424667   22.373657
H   97.543503   68.277763    4.059615
H   48.621460   25.527142   93.620712
H   61.959949   69.502693   67.372932
H   38.748974   74.916374   70.628815
H    2.798848   54.585709   22.611635
H    1.192070   23.902967   57.504864
H   92.314873   31.233419   32.441608
H   53.344044   92.811829   54.538452
H   67.227066   94.687744   58.658180
H   32.658207   39.035530   74.389793
H   15.025669   56.147938    3.018092
H   79.922165   90.663414   72.386803
H   56.500462   45.714783   71.019676
H    7.913327   27.625637   49.490784
H   28.393703    5.129835   41.790611
H   43.171696   97.738235    4.954201
H   42.679573   10.169138   53.174828
H   10.263150   50.351013   18.981153
H   63.493538   27.451454   47.509850
H   51.605347   86.963631   41.922428
H   99.682205    7.392021   26.227753
H    6.130716   48.505638   20.877052
H   62.084854   15.276247   87.650986
H   75.782341   45.299408   36.228477
H   36.461010    3.495129   24.584236
H   68.039429   51.256390   33.288872
H   25.430662   82.445267   74.188843
H    5.906217   73.734665   98.285614
H   78.690346   68.390167   94.428802
H   26.334826   70.448517   50.767414
H    1.068535   99.276237   35.200035
H   95.394684   17.353985    3.054211
H   42.718254   97.086563   99.877266
H    0.518023   98.565834   53.666832
H   29.417528   93.994141   91.440399
H   66.816460   62.820526    3.511683
H   70.928375   89.301605   14.497844
H   88.284241   76.525124   36.420494
H   22.604977   40.057255   12.725342
H   97.842171   35.608395   71.941498
H   41.214363   20.847269   67.027878
H   10.753309    2.886564   77.495338
H   61.627453   31.105686   84.385811
H   95.911293   39.161129   72.220909
H   59.808441   42.742924   99.815765
H    6.522573   79.850266   72.133308
H    8.077243   76.149918   78.045799
H   27.051447   88.863953   95.451752
H   86.436310   30.436132   16.974159
H   14.323920   43.138145   73.915657
H   38.794926   88.598854   81.220688
H   93.613182   47.955505   56.622253
H   34.634720   13.949671   44.910255
H   57.123642   22.016119   88.213264
H   34.173557    8.168678   98.952698
H   24.059807   37.369762   36.687420
H   39.961399   63.103561   26.664633
H   98.783913   74.185982   97.001083
H   19.671204    9.725575   56.390331
H   72.080238   11.891792   28.406513
H   97.650314    2.710437   14.977615
H   74.615990   48.192883   56.075668
H   24.807592   57.856079   77.816414
H   75.860107   57.920544   35.615967
H   42.822910   53.197926   26.863642
