100
TIME:    8.040, STEP:  8040
H   73.609856   84.714928   91.785172
H   78.431595   40.540325   85.053177
H   17.971163   52.333511   28.962357
H   82.826096    1.401493   99.462105
H   23.153734   17.198704   47.707306
H    3.337201   92.497765   74.974739
H   31.594181    4.236072   19.191639
H   87.958145   84.164024   69.988457
H   55.989326   13.279630   93.997452
H   55.158913   31.827486   22.518311
H   52.393814   89.749588   65.295074
H   48.978149   26.694042   20.632942
H   31.065712   75.334824   26.114187
H   56.988335   80.294350   69.088585
H   78.259834   51.860397   64.255890
H   78.251984    8.521198   65.650665
H   77.578011   13.755020    5.301274
H   72.996689    3.612705   20.820324
H   70.488098   15.640195   86.940491
H   75.903488   35.075375   63.733192
H   87.171730   55.810650   39.024136
H   33.182972   54.757202   34.597992
H   78.396614   29.234720    2.315574
H   72.026703   33.009979    9.953080
H   42.027168   48.548668   95.917152
H    9.698116   89.084274   34.282417
H   68.781662    8.262788   59.497219
H   54.149200   31.719717   32.531456
H   85.992668   78.543808   77.117210
H    9.282923   91.849167   22.545345
H   32.479527   43.017876   73.279869
H   73.407829   30.375042   54.960991
H   36.683582   80.237923   22.103651
H   17.810867   36.904610   33.037994
H   80.862221   50.929192   14.211403
H   71.541214   15.156278   94.149666
H   50.939175   10.092566   41.985806
H   31.684837   11.814627   89.802162
H    5.699713    6.240221   65.176598
H    5.915676   59.506256   70.605957
H   85.774826   32.054344   31.763395
H   22.646660   73.132019   90.416710
H   80.479462   11.717407   82.210793
H   65.961090   47.593414   66.843048
H   59.244476   14.676331   44.114777
H   74.342430   16.264633   15.824667
H    4.549936   62.080757    2.640698
H   56.678341   78.179382   66.047188
H    0.050050   66.576302   23.754581
H   94.541748   53.107380   21.375267
H   42.949528   93.433052   38.180542
H   95.872116   17.686155   46.261017
H   75.644447   68.627380   35.921303
H   90.505188   76.026169   86.599869
H    0.637669   63.193077   68.731537
H    3.609569    4.076424   18.926224
H    5.953906   57.555672   20.658485
H   27.380533   17.608526    6.462363
H   24.371948   78.487419   94.255188
H   28.461899   45.769871   34.933861
H   66.869980    4.675087   87.534462
H   13.562630   53.106888   31.569397
H   19.895748   58.647980   82.143524
H   95.131889   85.560333    8.851550
H   51.445450   18.702543   44.299423
H    7.438782   42.581047   21.571903
H   42.504578   26.326595   55.233624
H   24.988121   77.353325   50.561096
H   57.616150   72.083214   55.979126
H   93.312965   52.471493   84.790894
H   66.726219   48.360870   65.707527
H   11.193303   84.640038   45.374546
H   82.767838   20.621180   55.606319
H   53.214367   40.568012   25.443720
H   49.765686   40.153675   10.899807
H   15.726014   22.860996   54.938477
H   96.986046   29.918083   33.331619
H    9.713124   25.007198   58.460178
H   47.059464   29.902706    7.382692
H    5.236566   71.042473   28.267921
H   68.211433   12.459847   60.522736
H   44.611267   96.611160   14.378120
H   26.422068   41.575352   95.631485
H    3.289006    0.159060   29.087536
H   60.849136   45.969814   68.365196
H   66.254074    4.375640    0.105058
H    4.128227   18.778984    6.921556
H   85.334343   61.706383   12.215683
H   22.537571   46.517570   62.433968
H   55.495480   78.489273   11.628378
H   53.052631    7.568973    3.252005
H   73.177483    0.164652   86.721214
H    0.833117   68.759880   40.750122
H   24.301096    0.950394   68.923637
H   17.584625   29.555397    0.837971
H   57.992630   78.241394   52.172523
H   24.424826   29.077824   74.800835
H   22.758257   84.278526   17.478083
H   25.705803   71.520866   71.603798
H   38.606251   72.312302   23.221226
