100
TIME:    8.077, STEP:  8077
H   71.107658   81.321831   91.751297
H   77.409714   42.545414   87.386002
H   18.607157   54.995483   28.528057
H   82.832306   99.877007   97.434151
H   22.822187   20.164417   46.704056
H    2.763381   92.457680   78.638832
H   29.655006    6.734599   22.085087
H   85.050018   87.365166   66.591408
H   55.079796    9.722171   91.668579
H   54.148323   32.358753   23.967152
H   48.952164   91.238373   61.731094
H   47.565865   28.548672   17.999340
H   28.706352   73.095154   22.437250
H   55.156288   80.180305   71.904121
H   78.709236   48.555374   62.476593
H   76.764328    5.284983   62.579376
H   74.602699   16.202236    8.669530
H   73.787659    1.812311   19.537750
H   71.064529   17.192493   88.889969
H   74.906448   34.289768   66.252327
H   84.976097   52.127079   38.020039
H   36.730198   54.806320   31.447098
H   77.902611   28.933943    1.256925
H   68.589005   33.452606    7.205091
H   40.703804   45.614288   96.190407
H    9.523663   87.993515   30.800449
H   65.591248    6.724703   60.231449
H   51.027382   33.446751   33.754608
H   86.797188   81.900772   75.368156
H   10.701630   90.933426   25.486641
H   33.935848   46.335602   70.352547
H   75.744041   29.352879   51.535713
H   39.289944   77.530785   25.436903
H   19.374317   33.513771   31.479250
H   79.941399   48.127769   16.462591
H   74.757599   18.054384   94.033363
H   54.487812    8.737444   44.901272
H   30.155544   11.137489   92.413322
H    4.137851    5.434149   61.590981
H    2.430703   56.042305   73.516907
H   83.246094   33.323792   32.635098
H   19.528511   73.277115   92.305779
H   80.797882   11.939356   84.883492
H   63.598858   48.214729   70.460846
H   56.035149   13.216551   47.280914
H   73.864799   16.970211   15.974985
H    4.839175   64.092903    2.996045
H   56.680599   78.560471   68.336540
H    1.131520   63.511833   22.278641
H   95.318604   53.670544   18.788242
H   42.946987   89.860985   38.570663
H   97.670288   14.252832   43.832214
H   76.411705   68.841919   33.772530
H   89.648163   75.422638   88.232620
H   97.691689   66.435501   69.046005
H    3.655653    4.037503   17.666656
H    8.299504   56.488060   24.177483
H   24.625547   14.114229    5.509290
H   27.290096   80.050728   91.414810
H   26.020393   48.613918   33.881493
H   69.203934    2.954473   84.649483
H   12.249428   52.762497   29.895290
H   22.407684   56.123199   79.606323
H   97.672478   85.761887    7.846953
H   52.914192   15.747416   47.745026
H    5.165943   40.741661   23.759632
H   39.536041   27.605782   57.019939
H   22.432289   79.469353   52.329910
H   59.460335   69.424629   53.658440
H   94.064415   54.329792   84.712418
H   65.551338   45.843147   65.263771
H    8.146502   83.411522   48.086483
H   80.355408   18.790968   54.657551
H   52.399967   38.226437   23.245405
H   51.548050   40.208157   13.705111
H   16.600801   25.232353   52.448982
H    0.346406   26.715530   33.987938
H   11.451240   22.587994   60.503658
H   48.833641   29.794025    7.795609
H    3.422122   69.026939   25.080330
H   68.935783   12.842629   62.734177
H   47.387566   96.851105   11.282696
H   28.762373   42.194126   99.154999
H    5.834535    3.325274   25.708271
H   59.047577   43.655338   64.778450
H   65.402695    5.734714    2.674495
H    6.599408   16.088783    8.685875
H   85.929405   58.745468   11.832054
H   23.305534   44.457436   62.131355
H   52.224049   76.967178   12.950966
H   54.566822    9.566792    4.033412
H   75.915108    2.947350   87.426369
H    3.204858   69.869835   43.611389
H   27.876974    3.195127   71.418495
H   16.944820   26.241058    1.688149
H   61.048676   76.780273   50.261436
H   21.488047   31.201050   72.672951
H   22.686838   86.109444   16.735243
H   23.943199   71.680641   68.504845
H   40.904354   71.362686   19.656780
