100
TIME:    6.876, STEP:  6876
H   52.326248   91.458839   92.850845
H   10.578163   77.464912   11.658668
H   97.961792   68.590981   42.628635
H   82.630722   49.359650   63.267475
H   33.583344   23.899061   79.269012
H   21.389935   93.758812   59.700306
H   92.599319   25.637844   28.165308
H   79.446251   83.463196   76.862770
H   84.602669   25.194138   67.268440
H   86.951515   15.114050   76.940956
H   60.666260   42.913227   77.417900
H   93.401993   68.348999    3.488312
H    5.294907   45.783398   41.787529
H   14.622936   83.882118   80.506935
H   64.121895   55.834618   20.236233
H   25.055065   10.328955   62.272949
H   71.180061   36.764523   99.337746
H   48.107533   60.252869   61.166191
H   52.359585   66.811905   25.616520
H    7.267769   59.790127   84.482689
H   56.245132   71.690399   70.614342
H   21.589157   53.211975   33.723343
H   93.937691   38.700157   35.620926
H   80.178795   19.085176   96.401566
H   83.659492   40.859207   87.320717
H   15.186337   23.395927   43.820900
H   69.154640   56.651436   36.398739
H   52.364258   77.388145   94.055893
H   60.682915   72.936562   32.139069
H   64.649460   20.659111   30.010433
H   86.669380   38.639854   65.371773
H   99.912231   62.531750   62.718300
H   54.694065   65.401451   17.241339
H   68.629128   43.578293   82.076752
H    9.831253   39.060341   43.393364
H   70.356621   23.986732   97.808479
H   39.296906   52.721802   50.267185
H   79.794075   33.118786    7.662554
H   54.835743   31.598818   77.976974
H   15.551445   68.476013   79.024399
H   65.325699   92.116280    4.340999
H   20.742279   68.567383   30.992489
H   70.462128    4.735023   98.135460
H   40.287395   28.056051   53.033928
H   60.212761   60.598057   44.508366
H   89.368431   94.066025   11.095739
H   95.453415   98.777603   91.467186
H   56.607296   66.190552   94.025864
H   66.019539   62.978527   70.189346
H   70.102295   35.390553    2.761492
H   43.029453    5.809808   25.909737
H   39.300671   25.697395   22.669838
H   51.502338   61.878113    3.520799
H   17.460976   95.012924   35.234390
H   93.317184   61.185631   58.833897
H    2.159809    5.300838   58.551529
H   32.160389   91.142159    9.952309
H   14.054734   27.534403   36.446396
H   32.572456   29.300304   83.613533
H    5.274652   56.301327   68.040794
H   93.443596   58.804214   78.288467
H   54.875252   63.941238   84.236877
H   40.872227   38.077553   61.962494
H   15.201866   79.219574   40.457157
H    5.242113   11.669174   35.901325
H   78.943970    0.447116   52.746628
H   35.894577   86.083221   99.034683
H    5.393360   10.782821   94.915161
H   99.599648   55.720825   28.981823
H   69.689171   93.984306   87.254242
H    3.687634   27.558670   79.667854
H    7.025254   23.315472   60.058449
H   58.663254   78.192902   85.447815
H   78.840080   14.237801   94.605530
H   93.691032   38.444668   22.645710
H   88.209816   48.260479   33.262154
H   91.270111   30.665417   12.688341
H   55.027309    1.114951   94.174660
H   91.242882   33.321743   94.395409
H   62.319443   34.451881   28.547539
H   45.425682    0.417133   90.951874
H   57.265434   89.062637   11.758610
H   52.798538   22.109045   84.778824
H   23.207836    0.553014   35.400639
H   17.525221   18.786819   81.201347
H   93.038010   61.623405   19.273697
H   26.387285    3.411309   51.417610
H   66.614006   54.850201   24.284439
H   98.378525   11.327879   71.953987
H   58.408772   26.378445   70.015472
H    5.416951   44.715530   78.670334
H   87.053268   12.620452   64.537437
H   26.218204   33.833630   50.736214
H   11.805903   30.331751   90.437164
H   37.711281   33.819557   74.089630
H   61.850998   24.205740   12.294739
H   16.817953   62.279236   41.744507
H   25.005053   26.684204   40.845741
H   81.156364   66.494438   69.101006
H   66.304558    2.186294   35.353649
