100
TIME:    8.426, STEP:  8426
H   47.505852   49.316673   91.431778
H   67.770889   61.458279    9.390868
H   24.606127   80.104355   24.431557
H   82.890884   85.498650   78.305611
H   19.694895   48.138309   37.240967
H   97.351807   92.079582   13.200667
H   11.364041   30.301790   49.377338
H   57.619308   17.558458   34.546524
H   46.500710   76.167084   69.701645
H   44.616005   37.369877   37.632698
H   16.489029    5.281074   28.114874
H   34.244583   46.042339   93.157600
H    6.451588   51.971138   87.754379
H   37.875633   79.104591   98.461479
H   82.948189   17.380966   45.693855
H   62.732117   74.760155   33.609650
H   46.538277   39.284824   40.440376
H   81.248428   84.829918    7.440416
H   76.501678   31.834454    7.277333
H   65.501938   26.878668   90.013893
H   64.265938   17.382046   28.548475
H   70.189171   55.269623    1.726560
H   73.242958   26.096880   91.271866
H   36.160858   37.627655   81.286301
H   28.221664   17.935951   98.767860
H    7.877987   77.705002   97.957703
H   35.495354   92.217728   67.155807
H   21.580568   49.736897   45.291908
H   94.385765   13.564808   58.870323
H   24.083084   82.295761   53.231232
H   47.672504   77.630989   42.740776
H   97.780205   19.711391   19.227013
H   63.874271   51.995888   56.877579
H   34.121262    1.530160   16.777380
H   71.255806   21.703545   37.697292
H    5.095712   45.391220   92.936348
H   87.961998   95.955818   72.401207
H   15.730604    4.750437   17.041183
H   89.407402   97.830528   27.770058
H   69.557632   23.369173    0.974289
H   59.393997   45.297768   40.857388
H   90.116425   74.645721   10.123414
H   83.801361   14.032871   10.092749
H   41.315067   54.075241    4.585147
H   25.763031   99.448143   77.146660
H   69.359581   23.625526   17.392851
H    7.567537   83.072334    6.347656
H   56.701900   82.155060   89.930702
H   11.332382   34.608673    8.356564
H    2.645514   58.982548   94.386284
H   42.923023   56.167702   42.250458
H   14.632154   81.868927   20.922054
H   83.648811   70.865540   13.503157
H   81.564331   69.729874    3.633135
H   69.904182   97.018799   72.012207
H    4.090332    3.670389    5.785873
H   30.423767   46.417885   57.370186
H   98.638855   81.155342   96.519676
H   54.816433   94.796532   64.623138
H    2.990682   75.439072   23.955101
H   91.218796   86.723267   57.437756
H   99.862694   49.514053   14.104313
H   46.102146   32.308380   55.674347
H   21.637718   87.663025   98.371292
H   66.767471   87.873383   80.245438
H   83.726509   23.391777   44.395237
H   11.534548   39.670773   73.869247
H   98.324142   99.428642   69.014130
H   76.853516   44.347710   31.768723
H    1.152439   71.859268   83.972198
H   54.467060   22.095451   61.078072
H   79.406311   71.823631   73.667648
H   57.600327    1.527743   45.708355
H   44.718197   16.138725    2.509862
H   68.360077   40.722050   40.166553
H   24.852381   47.600945   28.966822
H   32.043777   96.508057   40.178619
H   27.846376   99.769005   79.780823
H   65.568703   28.768902   11.690413
H   86.306725   50.015556   95.013878
H   75.768166   16.453196   83.593445
H   73.575790   99.114365   82.084572
H   50.838280   48.030674   32.392818
H   29.845058   33.190651   93.832817
H   42.054489   21.824200   30.946751
H   57.369915   18.554085   26.910370
H   29.908342   90.713310   25.327492
H   91.542290   30.816898    8.213501
H   30.549297   25.025831   59.276985
H   21.366957   62.609863   25.426691
H   68.849327   28.410656   11.403831
H    1.737573   29.194782   94.077690
H   25.576206   80.339409   70.600098
H   61.605034   24.368519   94.951073
H   10.909904   94.979294    9.707411
H   89.874619   62.998352   32.235237
H   93.786400   51.229515   52.601830
H   22.013186    3.379147    9.728456
H    7.317893   73.187706   39.271923
H   62.581059   62.405979   86.036789
