100
TIME:    1.485, STEP:  1485
H   16.897985   85.839310   97.786453
H   59.962273   85.259682   71.673607
H    5.280533   80.741142    5.903409
H   81.725861   71.467918   58.766720
H   81.870041   91.786827   25.439766
H    4.988634   99.599281   25.809973
H   75.140587   61.613277    6.581777
H    3.168228   17.073811   71.846931
H   17.123863   43.516754    6.610988
H   34.257805   37.705757   65.843193
H   62.123947   25.994480   96.707016
H   99.160110   98.126274   87.225456
H   48.800911   71.862770   77.531609
H   81.553291    0.498788   70.250099
H   98.562614   37.380207   79.390457
H   41.816116   81.847527    9.773078
H    4.675731   80.202408    8.561452
H   32.878136   22.485306   48.064255
H   68.390266   40.651634   41.597439
H   52.508217   74.277451   17.438303
H   76.154633    8.380348   16.939205
H    4.739282   46.059967   92.809669
H   65.917137   82.544807   89.861877
H   81.068916   54.491978   96.784622
H   76.472038   68.399757   47.518867
H   39.849865   83.360199   49.983109
H   34.025314   80.748184   29.434446
H    7.242332   25.754482   15.858203
H   43.460907   83.822968   86.976067
H   57.934628   54.086258    1.442285
H   74.517433   55.212173   91.902435
H   59.520969   11.484933   61.790184
H   74.959793   59.832497   31.577482
H   40.846474   37.631264    9.190912
H   43.859825   46.665596   15.155266
H    1.669317    1.137772   15.534528
H   22.230171   50.152687   25.477362
H    2.614716   31.774418   27.233921
H   83.960648   48.807625   99.796036
H   23.323370   73.163109   54.871624
H   33.757744    7.137196   77.330490
H   98.157837   78.506096   72.567932
H   24.032011   72.405045    8.736909
H   84.532341   37.658783   25.929781
H   27.843124   73.298813   83.185379
H   58.928959   91.240883   89.201180
H   51.760303    5.847126   40.312447
H   56.318722   10.672865   60.461315
H    8.440084    9.462288   85.237137
H   57.034992   53.352047   79.801598
H   43.431324   26.276636   69.074463
H   77.301369   25.941805   76.574966
H   39.684135   30.619263   16.622723
H   42.302586   82.977074   97.346329
H   22.538811   88.687988   13.007397
H   95.424301   10.971283   42.073898
H   90.394608   46.698051   97.223198
H   15.481039   36.648079   75.305130
H    7.396430    1.512792   97.478775
H   61.022671   41.930378   21.372643
H   53.375835    9.513421   98.614220
H   46.205597   14.122799   28.162918
H   74.960205    5.887111   31.681496
H   45.011925   49.872520   86.822533
H   91.264107   42.239765   33.856098
H   10.119362   68.449318   33.990139
H   68.424210   99.704285   38.758801
H   77.786598    2.465275   37.194187
H   30.914391   43.083694   67.097206
H   60.467209   22.833879   98.606140
H   74.876640   94.360954   44.337193
H   51.521496    2.240747   65.347649
H   10.166660   44.851322   23.670788
H   97.507103   55.406876   14.950630
H   33.769943   30.756678   13.970875
H   60.768223    2.746681   96.008415
H    1.782914   97.836899   17.310328
H    1.748330   53.621094   96.450073
H   32.732811   49.152195   34.247505
H   26.698441   28.077326   92.987190
H   39.942295   44.644665   68.743629
H   52.744770   53.925735   62.602737
H   11.758460   32.041962   71.338806
H   52.325558   39.234966   27.791634
H   80.022018   55.997696    3.798419
H   17.112522   63.603703   44.906242
H   66.334511   95.381317   94.353531
H   79.860733   86.402023   80.306816
H   86.499947   11.490058   16.050053
H   35.044312   48.179543   77.301811
H   84.794838   53.616337   64.822220
H   88.161919    7.192461   61.815338
H   80.564705   72.125534   33.799057
H   90.758400    3.308351   26.944973
H   30.918419   16.711945   50.209862
H   16.576538   37.089409   90.746597
H   44.729782   52.901516   51.785507
H   12.317559   28.881561   32.276787
H   37.969933   43.251545   20.659870
H   31.464920   40.559757   54.659248
