100
TIME:    1.345, STEP:  1345
H   26.365225   98.678055   97.914627
H   63.856621   77.669655   62.842434
H    2.874317   70.668816    7.547326
H   81.702362   77.235741   66.440788
H   83.124008   80.565208   29.235847
H    7.159711   99.750954   11.945225
H   82.478539   52.159389   95.633522
H   14.171951    4.962242   84.700630
H   20.565331   56.977142   15.423739
H   38.083794   35.695564   60.360916
H   75.146408   20.361240   10.192617
H    4.503681   91.108757   97.190971
H   57.705788   80.332924   91.447014
H   88.485359    0.930406   59.596279
H   96.860039   49.884632   86.119583
H   47.445084   94.092400   21.394028
H   15.931280   70.943985   95.814812
H   29.886345   29.293472   52.917770
H   66.209175   34.778069   34.222103
H   56.279732   77.251083    7.906444
H   84.462433   22.318184   20.739025
H   91.315117   45.875183    4.730200
H   67.786339   83.683418   93.867310
H   94.076424   52.812901    7.182276
H   81.479362   79.503883   46.486000
H   40.491802   87.532257   63.104904
H   46.098221   86.567276   26.656279
H   19.054626   19.219753   11.230594
H   40.416779   71.120941   93.594109
H   52.566280   57.551224   90.312584
H   69.010231   42.657547    2.980800
H   50.681248   15.352845   74.750694
H   65.098953   70.075722   18.965178
H   34.931252   50.461464   15.088778
H   47.339745   57.248482    6.630638
H   89.497009   90.140396   16.016378
H    8.802361   55.279640   14.445905
H    8.400963   34.336826   17.354923
H   90.253983   51.796211   13.214549
H   36.509605   86.268883   43.856152
H   43.324852    2.333481   74.032150
H   10.740257   72.223442   65.990479
H   22.826109   71.565506   98.624580
H   93.472466   35.312134   12.241351
H   39.986710   78.823105   71.205399
H   60.735142   88.570595   88.632942
H   50.282032   98.294830   39.116158
H   56.311245    9.231443   51.798901
H    4.348015   21.056679   90.821243
H   54.098743   51.221157   89.594078
H   43.442005   39.792793   67.598328
H   70.497475   38.933041   85.765030
H   36.779930   29.807495   24.753750
H   45.544315   85.260704   91.168350
H   33.684593   76.415344   11.819386
H   95.249130   11.118416   46.839828
H   81.518570   50.737663   83.908073
H   25.906364   49.869209   78.911087
H   96.354942   95.597488    8.226566
H   70.261520   31.169119   25.354576
H   44.544659   16.023849    9.529650
H   51.174469   15.426167   34.497910
H   65.464661   15.434429   41.285988
H   35.397820   49.110954   90.622887
H   85.707771   53.421864   20.818075
H   18.719643   75.409157   25.712248
H   79.656509   94.863586   31.999767
H   87.457314   94.458542   30.501379
H   23.936394   53.143204   75.877113
H   57.631363   15.792322   98.900940
H   79.322136    3.886629   46.016270
H   63.064617    6.887316   55.097084
H   19.295307   51.775913   27.260723
H    0.587711   64.266861   23.271248
H   27.020130   30.557474    3.357606
H   57.458134   93.774315    5.428784
H   89.072258    9.971067   14.833319
H   95.170868   62.775909   88.719055
H   26.021845   49.562351   32.685921
H   33.564285   35.702324    5.048275
H   37.202579   43.196301   60.376019
H   42.239857   53.011429   74.309280
H    2.900123   29.705450   58.004459
H   42.694363   27.254984   40.579109
H   86.838730   64.755081   17.369652
H   20.335026   58.460728   35.184258
H   56.984230    5.560478   87.677811
H   77.607010   97.610825   81.761589
H   83.594673   19.284784   17.195606
H   47.422531   53.939888   72.296623
H   79.065468   46.057285   61.865673
H   77.803337   96.663338   59.148254
H   71.581856   67.929977   22.967924
H   77.227516   94.816597   17.505505
H   33.339008   29.252686   46.992699
H    5.013088   42.617973   97.977737
H   55.842453   44.867153   59.836960
H   11.803529   27.689545   34.516624
H   44.639244   42.648060   32.386707
H   22.770462   44.156101   68.143135
