200
TIME:    0.413, STEP:   413
H   14.787157   61.900845   18.297770
H   29.506241   35.403767   96.920288
H   14.511705   76.710335   53.869377
H   23.674089   78.995827   39.975788
H   13.373358   88.113907   51.171177
H   83.990601   48.119503   60.428738
H    5.865684   55.181381   52.999912
H    6.765460   96.356934   18.931564
H   94.454224   84.912651   43.499084
H    4.771296   72.475578   89.248650
H   18.223677   98.289864   98.428635
H   31.493179   46.640461   20.985355
H   15.420245   92.749382   54.201256
H   96.226639   53.936832   50.602200
H   11.269400   73.276352   42.552929
H   24.257767   18.838326   50.591030
H   92.345825   15.820944    7.032629
H   32.454037   91.483635   40.440414
H   70.781441   23.438730   45.030552
H   90.606644   77.328880   30.764385
H   60.161255   85.394264   17.914562
H   86.177605   55.426994   63.907951
H   89.824661   61.283607   44.985168
H   12.272563   89.636444   91.043610
H   10.765961   19.661821   39.237247
H   18.517885   70.013908    1.242765
H    2.245918   62.268055   56.037659
H   98.480499   77.266052    1.186481
H   18.355019   51.271309   37.325352
H   85.231743   25.398792   92.641541
H   13.135627   58.676945   16.406324
H   28.780106   67.561020   97.862396
H   22.943222   12.708110   75.292290
H   90.700890   63.766663   41.314156
H   39.686359   82.652512   32.903164
H   27.410168   45.977474   81.460266
H   91.229874   70.695045   87.253700
H   24.357725   49.230385    7.389029
H   46.667488   40.205734   48.277119
H   88.423653   38.977070   56.938568
H   80.555786   97.142326    7.266524
H   21.950243   39.479183   34.701405
H   73.586929   83.807755   56.752163
H   36.895859   71.636284   24.935627
H   34.687931   81.573372   50.606972
H   38.625263    9.336204   44.569374
H   83.234268   17.736538   99.972359
H   85.904068   65.547966   41.428360
H   93.770866   22.187054   61.291061
H   55.926476   18.582216   98.393333
H   74.092834   68.306427   21.012589
H   14.524869   38.675640   67.261162
H   56.841904   89.471344   10.191499
H   19.831827   85.834503   84.265060
H   69.876175   72.537468   85.178360
H    3.087917   68.088150   84.313171
H    4.936764   17.400124   47.798832
H   69.298752   62.601086    2.181004
H   24.530689   77.819412   11.310686
H   39.102058   95.017738   63.796150
H   49.859226   12.001129   37.182003
H   93.045189   16.834707   50.392014
H   76.213417   28.790287   79.048386
H   28.317663   65.399155    7.530066
H   74.129372   78.658127   25.003857
H   31.953506   23.282310   35.972946
H   79.712990   19.512835   89.409370
H   96.372627   91.843254   90.696655
H   22.676121    8.191094   59.790115
H   44.241112   44.645264   50.973354
H   58.389271   79.584312   77.908859
H   27.278372   19.274498   43.553833
H   82.984512   28.653957   93.702782
H   13.501438    5.162041   65.608864
H   81.251572    3.672047   59.478264
H   57.686539   12.968916   61.746990
H   94.696365   36.390575   69.698509
H   20.147528    9.120174   42.051811
H   12.845825   37.400993   31.106831
H   65.669319   89.702110   86.057220
H   50.710621   27.178173   98.565384
H   34.243385   65.479279   82.509056
H   10.324757   15.563966   85.217957
H   19.032547   67.516624   99.490082
H   32.747654    1.153245   52.879482
H   29.541220   79.721329   24.181515
H   43.608883    3.144603    2.167937
H   73.892815   12.105514   17.967371
H   70.980759   72.478340   77.793884
H   22.577625   93.801483   52.962231
H   33.990711   36.386246   79.984993
H   82.850372   90.053329    2.142679
H   55.477959   14.910978   90.802696
H   52.270241   88.218307   73.854935
H   29.508570   54.586044   75.145035
H   62.107735   31.577221   20.927559
H   81.652351    8.295473    5.779895
H    2.138817   31.126986   50.231548
H   33.097847   68.045021   53.494335
H   70.212448    0.738629   27.292643
H   17.584806   85.209656   77.086128
H   97.005424   79.273903   64.910324
H   26.765524   30.847641   32.920418
H   30.188869   68.258896   97.032372
H   25.109409   25.199230   30.696388
H   94.271988   18.302849   35.791294
H   73.853470   32.244896   55.454102
H   63.732071   40.916698   12.051999
H   77.193100   37.905903    7.498020
H    9.924109   25.648298    6.383971
H   49.470684   94.563431    0.917569
H   92.940514   67.695740   92.481750
H   54.089321   82.282204   90.172379
H   62.638145   15.667681   70.492767
H   58.077080   89.172501   20.706797
H    6.978262    0.736234   86.738869
H   25.462078   10.878723   86.196884
H   39.893391   35.511719   30.520409
H   25.432400   64.208763   74.989441
H   75.348114   50.127682   55.796337
H   42.360176   22.909054   81.850922
H   10.824486   23.381786   53.276981
H   36.407234   14.526208   29.161194
H    1.528412   61.093235   10.289268
H   71.739784    4.668674   87.091431
H   54.060436   67.085770   22.191086
H   91.086449   49.997696   64.373505
H   71.644562   88.926811   36.463688
H   94.596695   46.221474   80.947769
H   76.130424   23.329367   69.448914
H   55.592468   79.008636   10.022648
H   75.059662   87.767227   13.406751
H   91.872841   91.011642   98.662041
H   92.437660   17.438614   51.836658
H   12.972471   98.242020   48.467216
H   57.750359    1.404821   81.132904
H   69.179131   87.005363   63.950912
H   92.693977   58.819321   80.464890
H   50.835159   46.752983   71.509171
H   43.541656    0.792634   90.650467
H   59.182392   57.981167   20.498306
H   49.274109   46.267269   50.279800
H   49.444164   59.945213   93.549034
H   49.785851   20.265352   80.991219
H   48.433750   64.029533   54.725574
H   52.278881   64.956482   21.560589
H   48.822899   96.020180   46.043182
H   37.928574   66.978973   67.832420
H   69.810150   57.569279   96.224648
H   14.976626   90.563553   83.522896
H   70.122353   64.248016   50.038170
H   41.069836    2.322876   42.730900
H   84.212532   25.369831   97.391457
H   14.483129    5.113703   71.677414
H   20.472641   58.447823   63.883320
H   68.637772   43.957867   59.383396
H   61.122143   66.071663   82.804245
H   48.505672   33.884178   13.777170
H    4.463940    1.082474   96.189148
H   61.740105   49.885071   84.880096
H   55.655300   77.380997   78.816086
H   35.481533   22.159769   34.045246
H   72.666145   27.027243   37.160118
H   17.624855   25.261879   63.796894
H   57.297729   27.958551   11.524392
H   14.894326   58.934715   61.356125
H   71.920853   94.768806   54.055679
H   23.783340   38.803699   55.166492
H   96.423676   27.607609   36.448429
H   34.367847    9.154182   88.455200
H   76.059998    7.691190   35.961555
H   40.186501   59.021397   57.989368
H   41.015553   70.020645   85.556290
H   69.095642   70.399811   78.253044
H   63.397125   93.735138   91.096970
H    6.248645   48.595329   23.452721
H   33.640518   58.325420   94.144897
H    3.263255    9.365845   67.092331
H   71.177315   17.357874   67.111458
H   78.071045   56.310860   88.825470
H   78.259331   91.388916   37.696949
H   22.717113   30.317226   75.931816
H   57.670433   89.986252    9.494030
H   55.248249   25.540558   83.554771
H   87.760170   80.830833   77.684097
H    2.882126   37.683563   84.820045
H   37.375946    1.561211    3.098394
H   82.109734   74.552559   31.579870
H    1.608423   61.944878   68.520599
H   52.759518   57.332233   67.888748
H   56.084732   25.300663   78.066048
H   46.234699   89.630630   22.420839
H    7.943234   21.639757   61.769169
H   32.081028   70.435448   36.799759
H   78.957764   46.528069   21.250383
H   75.750504   10.807954   27.196188
H   10.611230   90.276680    9.305951
H   23.881718   93.967880   42.087757
H    9.606316   12.095963   70.279900
H    6.203371   29.131628   95.345284
