100
TIME:    5.665, STEP:  5665
H   34.221107    2.512822   93.959549
H   44.021095   11.840941   35.301678
H   77.136642   81.467026   56.847759
H   82.427460   99.251312   29.644558
H   44.430161   26.832155   12.104210
H   40.173222   95.070778   39.770283
H   56.066334   43.866123   33.463459
H   74.628464   78.696060   88.052254
H   14.371422   41.626801   43.495628
H   20.030855   97.724373   29.525030
H   73.310532   94.186310   94.068184
H   39.624344    7.647798   89.688545
H   82.571548   19.016781   62.118828
H   74.584038   87.614754   88.348793
H   49.406212   64.006821   78.461731
H   73.746292   16.247574   62.796600
H   68.561501   56.665325   89.095642
H   22.210066   19.178944    3.148146
H   33.502384   16.006075   61.814541
H   39.891373   85.510536    2.032182
H   28.107582   92.248291    3.486897
H    5.489410   51.604355   36.851181
H   10.107274   48.549141   70.267914
H   92.697701    4.598116   86.341156
H   26.970783   36.897202   78.377174
H   20.722055   59.189171   57.705849
H   73.580307    6.988772   12.367939
H   54.544872   20.862740   54.029388
H   34.351204   63.065067   89.385132
H   18.214634   50.631065   33.739365
H   39.008759   30.047337   61.182167
H   23.448643   95.995712   74.826637
H   69.393181   54.003777    8.144895
H   17.461143   54.559258   33.092842
H   39.955444   30.689585   69.686050
H   65.086349   29.136143    1.615849
H   23.146553   97.069946   54.845135
H   29.847759   55.283619   22.205227
H    5.949539   57.985893   95.332054
H   29.614088   81.845192   83.745140
H   48.088745   50.561363   75.810646
H   22.798794   63.818787   69.166222
H   60.036800   97.471268   10.663390
H   17.614918    7.729803   34.629814
H   65.257866    8.381269   40.880108
H    4.999415   70.968033    6.175868
H   85.992477   32.920609   79.844276
H   56.541958   53.717636   19.095984
H   30.623650   63.273384   18.494358
H   44.689884   16.956274   87.446823
H   43.112606   22.724455   13.145270
H   80.441185   38.069691    2.164119
H   26.380962   54.856323   73.855644
H   45.501938   14.771522   81.797630
H   89.738884   55.059155   48.532192
H    0.651477    6.574693   99.776825
H   55.387093   26.085793   94.775993
H    4.228309   41.898582   67.637924
H   37.063019   78.129066   76.578651
H   85.187225   63.220074    2.484505
H   17.053009   15.123640   72.707176
H   97.855995   75.213058   39.031357
H   58.658375   20.713648   45.004395
H   32.044594   72.622787   73.336838
H   57.177872    8.389614   23.126013
H   53.336021   60.649132   81.142342
H   33.055420   44.215549   40.569046
H   89.045341   41.525181   37.022358
H   39.245426   42.735558    4.932755
H   45.156960   33.074829   89.804260
H   42.143959    9.954100   94.191872
H    6.862446   63.514633   71.387558
H   37.623215   38.091713   16.496353
H    5.502583   90.881248   66.558464
H   35.303852   36.716938   30.843952
H   59.585358   70.647270   14.747215
H   81.300560   35.541386   91.236534
H   98.132324   80.300484   27.296282
H   33.170193   36.878834   80.887703
H   21.707588    0.419735   32.876343
H   21.727144   87.888687   18.572866
H   66.384644   81.209183   13.063458
H   76.199348    1.858050   69.450348
H   39.892723   96.925095   46.006329
H   76.490486   94.535271   98.594284
H   20.910030   17.138218   35.178116
H   45.507271   91.461128   93.672501
H   47.137779   51.755177   36.840508
H   73.247910   78.754280   81.858406
H   65.477539   76.203171   26.727991
H   55.857811   79.324661   53.096233
H   97.451530   21.541395   41.466949
H   48.590836   97.496559   57.087727
H   94.768410   56.862133    8.781350
H   58.647301   42.293827   46.261173
H   61.827362   72.027069   74.844238
H   12.941509   92.783592   11.389953
H   27.342569   66.760956   65.154503
H   38.845428   61.269886   70.534721
H   91.086411   33.261929   52.013882
