100
TIME:    6.996, STEP:  6996
H   44.211014   80.454201   92.740982
H    7.264386   83.966988   19.225044
H    0.025384   77.224403   41.219639
H   82.650864   44.415802   56.689411
H   32.508514   33.517590   76.015228
H   19.528667   93.628807   71.584183
H   86.309647   33.741177   37.549465
H   70.014488   93.845276   65.845314
H   81.652840   13.656615   59.714817
H   83.673927   16.837191   81.639442
H   49.504150   47.741718   65.858452
H   88.822525   74.364014   94.946602
H   97.637917   38.525471   29.863529
H    8.681393   83.512245   89.638405
H   65.579414   45.115623   14.465664
H   20.229778   99.833130   52.312012
H   61.530403   44.701229   10.261834
H   50.673756   54.413635   57.006950
H   54.228176   71.845474   31.938236
H    4.035042   57.242214   92.652855
H   49.124161   59.744270   67.356895
H   33.093674   53.371277   23.504227
H   92.335518   37.724205   32.187698
H   69.029503   20.520723   87.489822
H   79.367500   31.342300   88.206947
H   14.620541   19.858788   32.527870
H   58.806889   51.662727   38.780025
H   42.239441   82.989342   98.021957
H   63.292168   83.824013   26.466909
H   69.250900   17.689140   39.550133
H   91.391670   49.400047   55.877754
H    7.489016   59.216625   51.609291
H   63.147129   56.621544   28.051886
H   73.699318   32.580978   77.021210
H    6.844618   29.974648   50.694695
H   80.788139   33.385925   97.431282
H   50.806000   48.327271   59.722752
H   74.833748   30.922436   16.130272
H   49.770130   28.984529   66.347946
H    4.248802   57.241940   88.465317
H   57.124405   96.234322    7.167919
H   10.629242   69.037964   37.118359
H   71.494843    5.454857    6.803135
H   32.625347   30.070211   64.766472
H   49.804131   55.863865   54.776920
H   87.819359   96.354843   11.583258
H   96.390915    5.303786   92.618919
H   56.614620   67.426514    1.450757
H   69.527840   53.040478   65.402969
H   72.621826   37.217030   94.371407
H   43.021214   94.224533   27.174538
H   45.133495   14.561836   14.792676
H   53.991657   62.573914   96.551552
H   14.682350   93.055527   40.529800
H   83.762741   71.701622   59.854710
H    2.309269    5.174610   54.466446
H   39.767506   87.679634   21.365395
H    5.119416   16.201548   33.355576
H   42.036263   34.371410   74.401497
H   97.355797   65.525116   64.627708
H    1.013208   53.224075   68.931778
H   50.616219   62.824295   78.807800
H   49.019505   29.888958   53.733734
H   23.442070   79.873260   37.198795
H   10.005210    2.084905   47.076252
H   71.572144   94.481560   59.841965
H   26.266619   90.232391    4.828465
H   97.104027   17.646070    0.651855
H    5.580583   47.098389   21.455273
H   72.120811    0.019463   87.001556
H   99.876915   19.393997   78.228645
H   97.149910   19.322399   68.853004
H   50.839157   72.258453   82.371643
H   76.197868    6.643064   87.475403
H   99.476646   38.616413   31.743015
H   91.046120   55.951824   25.187731
H    2.168614   20.278759   14.816484
H   60.665127   93.268806    0.801334
H   96.997887   32.969265   95.733910
H   56.434433   27.914730   18.209404
H   47.774010    1.658875   98.124115
H   66.269875   89.840836    1.719454
H   60.389175   24.115881   96.206436
H   31.463604   10.821802   24.440861
H   11.682325   11.280267   69.568657
H   90.276779   66.031250   27.606827
H   34.401814   94.686272   57.139656
H   68.543938   45.247234   23.040237
H    0.868878    4.646589   70.972542
H   47.798725   21.441006   74.305634
H   10.327900   51.194717   81.204514
H   95.932053   21.645348   66.824425
H   33.910465   37.434399   60.015999
H   23.403263   37.612022   98.528595
H   35.636696   23.070351   76.847198
H   71.762497   19.467428    6.096390
H    7.293055   69.165833   34.843262
H   24.773424   32.621807   38.436989
H   75.439812   67.012627   59.049892
H   73.758781   99.106857   23.793285
