100
TIME:    4.568, STEP:  4568
H    8.407490    3.112523   94.963882
H   74.318489   52.398117   66.134155
H   58.274452    2.544701   69.724617
H   82.243332   44.449272   89.775276
H   54.255890   38.902847   41.846695
H   57.188305   96.259239   31.130247
H   13.561930   69.791916   47.676556
H   60.850502   83.791901   88.775154
H   41.337776   47.098862   12.547184
H   50.008537   81.973076   86.567444
H   75.350800   50.045856   99.736984
H   81.493187   52.660820   67.773842
H   52.573563   85.353828   71.122559
H   28.900105   90.996010    4.866015
H   36.065315   61.995178   31.192223
H   17.854828   12.195160   53.857361
H   56.775764   84.108322   89.231407
H   98.752113   72.553246   41.175732
H   16.416527   69.988129    4.023444
H   69.445427    8.809473   27.343271
H   93.205132    1.457780   33.261024
H    0.318954   50.148071   30.270859
H   24.754646   57.470970    1.653449
H   94.624771   91.467651   67.814590
H   66.206207   23.894135   70.275551
H   25.722799   91.613647   60.863422
H   68.176048   52.591976   90.603432
H   47.106907   69.658508   17.764582
H   10.497800   63.536648   41.239784
H   76.150864   77.781548   46.531197
H   95.833961   31.677219   47.973320
H   54.183483   26.303406   76.381416
H   92.120827   34.265190    9.318471
H   71.110291   55.092773   79.308922
H   67.223099   13.614464    2.888793
H   69.726120   43.214283    5.066390
H   17.929983   37.246567   68.405869
H   75.187111   75.357185   44.792004
H   52.257275   81.889030    1.639503
H   32.939186   84.542534   97.434753
H   23.061062   12.923963   49.965801
H   21.075279   16.871847   17.409868
H   50.587696   90.892883   31.425631
H   87.661636   89.323822   27.369909
H   60.414555   51.660042   47.006977
H   19.154232   50.044422    1.717264
H   77.422165   73.261070   69.315514
H   56.483372   42.418884   51.219872
H   98.559677   54.127102   62.256897
H   21.682278    0.259231   64.170998
H   43.196110   28.632900    1.580788
H   27.128199   39.863064   74.181946
H    3.625385   48.495544   37.566723
H   70.905479   32.673622   33.388756
H   77.083862   58.917194   39.200260
H   99.281815    7.728630   37.121307
H   85.843185   57.739037   90.442177
H   85.912979   45.496635   95.893173
H   50.544388   31.778881   60.796349
H   57.576733   78.900085   33.685799
H   47.853882   66.137108   58.237602
H   36.787376   85.423782   88.666382
H   84.182228   95.570602   20.228996
H   56.716881   66.647003    3.116199
H   13.633409   96.005157   20.967157
H   20.725540   15.183863   16.279135
H   21.069441    6.291241   87.604782
H   64.822746   78.785782   84.579414
H   84.570694   21.558975   73.736450
H   22.934374   77.900391   92.114227
H   76.977592   84.592987    7.350508
H   97.315094   99.921722   91.069328
H    9.148947   92.355202   44.626060
H   29.649563   60.308720   31.738365
H   82.412483   35.151852   47.683681
H   33.648445    0.338120   88.561081
H   81.700058   30.622166   71.836159
H   46.593273   52.030926   66.714912
H   80.564613   40.101070   68.651573
H   75.501801   60.172123   27.383842
H    0.260689   76.539719   53.007336
H   84.067818   74.060074    4.803812
H    6.809765   83.512390   64.978119
H   64.419708    3.052387   46.200233
H   29.906130   63.155235    4.936086
H   46.160648   76.845924   58.999008
H   72.241112   71.222107   41.363464
H   29.483950   39.568977   48.237892
H   50.483017   39.832817   90.830452
H   62.467014   21.335182   87.512268
H   10.964103   20.091087   29.929605
H   16.283514   39.037323   20.567873
H   78.271217   64.581490   72.254990
H   88.742172   90.315689   34.815624
H   77.612465   40.556343   21.054218
H   71.219650   15.346434   31.505974
H    0.016381   29.828625   74.478989
H   23.633276   55.131470   82.938484
H   91.104248   56.541149   62.420166
H   22.947420   61.408375   57.691074
