200
TIME:    0.791, STEP:   791
H   26.402147   60.646343   24.761335
H   32.875183   40.922131   12.265955
H    6.589209   93.255333   72.487907
H   36.415680   83.413979   30.091183
H    9.360035   97.694260   45.736446
H   71.693604   37.859989   49.240604
H   11.342231   54.913177   60.316395
H   15.236228   12.678775    5.514416
H    9.804729   79.245766   34.277779
H   91.464966   67.180420   74.338829
H   31.398825    6.364496   10.373787
H   33.056259   56.729824   38.996380
H   24.697788    5.294928   38.708885
H   78.360809   55.531635   68.816978
H   93.019730   76.186218   41.622868
H   13.239875    3.263768   42.436771
H   10.127217   33.524490   88.679695
H   23.478548    9.655729   33.710808
H   83.358177    9.754016   50.595058
H   91.809235   72.137840   16.111233
H   64.697647    4.263569    0.596979
H   77.762352   69.875389   49.341316
H   78.505310   58.535240   35.915268
H   20.279020   93.082718   89.858322
H   27.195717   34.864361   25.749195
H   18.204981   86.789619   88.758316
H    9.566246   69.852745   71.235870
H    7.155928   92.859360    2.181107
H   34.275650   39.781807   35.111950
H   68.150337   35.525177   79.565887
H   12.642118   74.469246   16.868471
H   21.906303   76.420395    7.169156
H   13.809875   20.841606   79.909431
H   78.190483   64.179062   47.921196
H   21.546143   67.033249   30.027409
H   15.062675   37.358906   85.794785
H    2.079068   62.536461   90.091469
H    5.660431   59.008286   90.393806
H   32.677635   26.670382   56.679394
H   84.798576   37.422642   42.172943
H   80.668259   79.484138   19.813221
H   40.764877   31.552711   23.492537
H   66.780899   75.124298   70.788162
H   36.053757   89.995262   38.454338
H   47.603527   93.106133   64.247871
H   33.305889   99.498810   48.680389
H   90.357529   99.217209    8.259448
H   76.701508   65.542198   27.839371
H    8.389510    7.842685   61.563591
H   42.399490   20.288050   82.402046
H   65.100800   63.522018    6.032329
H    0.075388   45.181744   75.388023
H   67.038414   78.665024   15.128577
H   14.205922   93.811401   89.862732
H   53.876236   64.130867   72.953461
H   98.242485   58.775188   96.690918
H    3.858013   18.830544   43.744053
H   73.428513   71.388359   95.357948
H   16.554512   85.121475   20.452869
H   30.359482   92.895180   56.808434
H   48.635006    4.626247   26.137682
H   99.839684   17.730162   53.290344
H   86.627220   36.620399   66.295731
H   37.476677   65.938446   15.969822
H   80.205772   84.293289   40.461292
H   17.125156   37.967613   42.767441
H   65.593361   11.539339   97.219002
H   94.255836   92.702660   98.180405
H   36.121414   13.299222   55.005707
H   42.065201   51.233559   50.953167
H   58.223446   86.122139   88.019852
H   16.654764    9.338945   40.907845
H   94.981583   35.188900   81.045296
H   25.816387   96.853394   76.613869
H   85.854294    9.790986   41.704720
H   67.240936   99.623901   59.276920
H   93.098679   50.462620   64.351738
H    6.147090   16.003349   29.126122
H   15.721260   54.239677   22.729145
H   59.972572   87.593971   68.130829
H   66.753815   20.789589   92.953293
H   50.864807   58.680771   70.823448
H    8.849997   19.710308   74.158157
H    6.706009   79.877068   11.809710
H   19.286999    5.150462   42.167194
H   40.190228   66.495712   16.312763
H   60.550419    3.932271    3.034553
H   70.749352   98.036880   32.224697
H   82.551010   73.398308   79.155090
H   20.684338   10.745143   48.803631
H   18.145693   39.649391   78.303673
H   80.217361   93.369827   10.390537
H   73.435387   10.647837   80.037056
H   35.320053   74.637970   84.234131
H   39.086227   49.472870   90.888306
H   46.453865   40.028522    3.154922
H   86.779945   95.220650   22.059372
H   92.006836   37.040516   53.856228
H   24.532631   64.258446   54.833912
H   76.784882    6.880450   27.384928
H   34.449917   95.660950   94.885628
H   11.060764   84.992699   62.825256
H   34.601112   17.032986   38.202301
H   48.351814   68.956802   12.043725
H   24.608330   20.231693   42.951569
H    9.237137   99.796074   18.093605
H   91.500732   36.898136   53.649170
H   61.504250   55.429981   97.435524
H   86.799408   33.134472   25.776249
H   22.066816   20.377951    8.233999
H   54.443989   91.278656    1.183520
H    8.117984   77.201111   96.787430
H   47.524097   86.668633   81.950348
H   61.357689    7.518480   60.745632
H   45.462852    4.912755    7.452829
H   91.552078   89.679222    3.791539
H    9.920540   16.201355   90.603500
H   37.975590   54.117271   22.964561
H   39.787395   78.400490   56.308060
H   85.323563   57.671993   69.897827
H   46.305367   25.420940   69.464523
H   94.515099   14.427242   64.395851
H   45.520393   98.583633   40.375099
H   95.959465   47.491268   93.735924
H   60.429085   95.309967   74.589676
H   67.908974   77.427475   14.892572
H   81.690666   51.762650   49.775146
H   63.376389   91.891472   39.656178
H   99.248444   32.538757   72.333527
H   94.451912   21.537737   75.888687
H   70.851242   65.511932   24.468159
H   60.550705   91.516312   22.320919
H   90.638527    9.401974    1.474342
H   73.902763   27.129997   56.488407
H   31.645855   91.407150   31.097420
H   47.682625    0.919693   75.564072
H   69.804939   87.968590   82.768433
H   95.918190   47.016914   74.492310
H   60.715439   52.039192   71.419769
H   43.746414   82.664314   80.147263
H   77.896095   46.865131   32.708786
H   31.872595   57.752445   59.091591
H   37.292805   66.902046   80.799263
H   32.465080    6.582387   87.255074
H   66.201530   51.493172   67.086014
H   66.129089   71.468353    3.456791
H   57.763023   94.364815   43.336632
H   27.607056   52.908371   65.663719
H   79.915375   41.787075   92.466911
H   27.026297   94.690430   69.377312
H   56.799465   70.667603   47.184540
H   56.981815   91.863113   30.885235
H    1.772694   11.235783   84.122581
H   24.475214   13.790250   62.336166
H   35.461769   68.431122   70.721100
H   79.859070   44.895138   71.013634
H   65.078873   77.408318   87.280075
H   53.879841   27.819313   22.632940
H   87.163406   99.658112   82.170456
H   57.502197   34.461914   99.386169
H   59.368336   62.024170   68.765656
H   17.733364   20.200872   30.770565
H   88.937172   10.546412   37.002945
H   31.500072   36.366379   47.625362
H   53.678421   40.784748   15.238509
H   21.406919   46.907364   59.289803
H   65.411865   88.654915   58.062874
H   24.113548   56.001904   70.797287
H    1.560243   26.378342   35.555859
H   51.617962    6.301634   84.198547
H   68.838684   12.186486   35.929832
H   27.127880   44.981075   59.150143
H   48.319057   53.777550   74.920425
H   64.441010   61.359173   87.023018
H   45.828339   90.891602   73.323425
H   17.917503   50.639202   23.821056
H   29.757332   70.134346    9.956493
H    6.613439    9.726334   71.925766
H   61.510071    8.570292   62.690849
H   60.090176   60.365639   94.157822
H   71.358131    4.934948   28.908484
H   30.341454   30.778652   89.731331
H   40.264595   89.585625   16.983376
H   63.480373   26.239906   97.460991
H   92.648399   64.435799   76.126785
H   10.795335   40.873169   86.711891
H   50.538116   95.086716   11.474003
H   63.949745   90.564034   44.806904
H   90.661201   63.630524   72.840698
H   59.633320   55.276005   72.664505
H   74.141533   12.794582   75.366707
H   43.135937   99.903122   17.606150
H   16.339397   30.632513   70.429184
H   25.477585   85.521187   44.417610
H   65.985931   29.644312   20.013906
H   76.673355   11.735492   22.017405
H   13.123837    0.583835   22.064375
H   12.896077   86.455292   31.427380
H    4.565599   13.153637   53.374413
H    2.260844   16.324900   90.093681
