100
TIME:    7.321, STEP:  7321
H   22.232805   50.649971   92.443436
H   98.289230    1.576968   39.717777
H    5.612121    0.606563   37.403606
H   82.705414   31.026123   38.873821
H   29.596495   59.567776   67.202896
H   14.487922   93.276711    3.768946
H   69.275116   55.687702   62.964886
H   44.470131   21.961765   36.004044
H   73.663719   82.409027   39.256023
H   74.797127   21.503710   94.364510
H   19.273438   60.818882   34.553947
H   76.419800   90.654678   71.812370
H   76.913811   18.855175   97.566078
H   92.589455   82.510506   14.370884
H   69.526863   16.085014   98.836700
H    7.161313   71.407532   25.334166
H   35.395912   66.196732   39.847866
H   57.623943   38.599045   45.742340
H   59.288944   85.478058   49.059551
H   95.278397   50.341618   14.780283
H   29.838196   27.388580   58.536182
H   64.251740   53.802719   95.827530
H   87.996300   35.081001   22.888159
H   38.831436   24.408663   63.353783
H   67.743355    5.567345   90.607155
H   13.088177   10.279034    1.943525
H   30.780554   38.151642   45.229343
H   14.817311   98.159248    8.764897
H   70.358894   13.310564   11.104837
H   81.713135    9.644979   65.387077
H    4.181776   78.543472   30.164787
H   28.009548   50.238163   21.522392
H   86.038460   32.842628   57.330452
H   87.431084    2.796813   63.329117
H   98.756035    5.367595   70.468323
H    9.039890   58.841019   96.409706
H   81.977890   36.425415   85.331573
H   61.400009   24.973988   39.063660
H   36.050762   21.904165   34.852661
H   73.636436   26.815554   14.035150
H   34.912567    7.385875   14.824160
H   83.239876   70.312454   53.709049
H   74.291779    7.404406   30.277309
H   11.873842   35.525230   96.544426
H   21.613632   43.042095   82.587593
H   83.623955    2.553302   12.903620
H   98.929977   22.979233   95.738197
H   56.634457   70.773911   21.559505
H   79.029488   26.124928   52.437653
H   79.445557   42.163738   71.648781
H   42.998898   62.848267   30.600040
H   60.929256   84.404449   93.458557
H   60.733562   64.458374   77.677193
H    7.156906   87.754242   54.871536
H   57.886124    0.181782   62.619411
H    2.714056    4.832742   43.402679
H   60.370113   78.301964   52.275505
H   80.919113   85.509056   24.983564
H   67.667046   48.105656   49.452232
H   75.907661   90.504135   55.383934
H   21.514940   38.111198   43.592743
H   39.081337   59.799240   64.104050
H   71.084251    7.710826   31.447510
H   45.760052   81.643661   28.374065
H   22.905087   76.128815   77.341682
H   51.606781   78.324791   79.058502
H    0.190468    1.469520   20.520254
H   74.654152   36.233757   16.188736
H   21.779152   23.745956    1.071302
H   78.710472   16.360216   86.315872
H   89.557014   97.280899   74.330788
H   70.400124    8.513560   92.672920
H   29.648756   56.184780   74.040344
H   69.041878   86.073181   68.164642
H   15.131356   39.094967   56.384815
H   98.727776   76.781029    3.319609
H   31.686226   92.148994   20.580206
H   75.934219   72.019035   18.750391
H   12.582740   32.014637   99.359016
H   40.495865   10.209683   90.210579
H   54.135551    5.021462   17.549057
H   90.658760   91.948456   74.528770
H   80.945107   29.551062   27.158089
H   53.821766   38.633297   94.757439
H   95.857819   90.948997   38.063454
H   82.798447   77.967819   50.175720
H   56.107822   71.056129   72.636864
H   73.770836   19.239809   19.670525
H    7.614192   86.551003   68.314461
H   19.063742    8.068775   85.924820
H   23.628223   68.743187   88.067917
H   19.978762   46.088257   73.018349
H   54.743671   47.186481   85.148750
H   54.812103   57.329430   20.442545
H   30.017590   93.958511   84.315613
H   98.606140    6.634081   89.309593
H   81.495964   87.817032   16.151337
H   24.146097   48.701710   31.913267
H   59.957481   68.416054   31.826878
H   93.947304   90.765640   92.484818
