100
TIME:    0.319, STEP:   319
H   95.750160   92.767464   98.853958
H   92.396629   22.040401   98.122986
H   85.245300   96.854347   19.594284
H   81.530151   19.507441   22.677439
H   92.313797   98.326782   57.055702
H   23.069683    0.866458   10.336826
H   36.251850   82.878181   15.398974
H   94.813522   16.200031   78.904869
H   45.786369   55.622864   80.007652
H   66.122826   20.966656   20.181032
H   70.582428   79.078247    9.022129
H   43.665958   39.680382   70.222328
H   22.971138   42.407532   93.423119
H   39.286900    4.093717   81.516258
H   84.382591   41.528366   35.438160
H   88.697372   83.835396    6.559972
H   98.419441    3.093042    2.399303
H    7.961509   79.187607   88.487106
H   50.231636   91.734909   80.168442
H   84.014351   98.843475   37.950844
H   45.346634   24.459793   48.583946
H   92.935524   44.520981   92.093086
H   81.484917   92.027809   23.223438
H   89.402954   40.507664   83.383301
H   18.174154   60.875423   38.914078
H   45.196285   18.104332   59.272888
H   34.570797   29.216179    6.296360
H    5.625125   71.329025   77.319626
H   18.107666   78.034264   42.092468
H   13.225694   82.944473    8.748455
H   28.650301   50.648796   84.168968
H   85.899292   43.697205   69.732658
H   92.827454   45.142357   26.534994
H   91.580406   44.488190   58.312172
H   72.842583   34.806320   44.152771
H    0.290499    9.544699   19.546698
H   10.395608   92.852882   33.601147
H   50.804283   53.115620   44.951756
H   36.379147   73.698280   11.551595
H   33.147480   82.319725   63.133514
H   13.442104   67.124535   49.855450
H    2.951273   26.174135   17.787146
H   13.989015   65.412888   24.515137
H   58.989014   18.117708   11.922054
H   28.984913   19.305672   83.404968
H   73.877296   69.200981   84.569252
H   39.448414   42.949596   30.349066
H   56.256451   98.667236   88.315872
H   74.353081    6.030361   31.748522
H   32.580235   35.604778   61.352356
H   43.520283   38.846504   56.780369
H   20.635542   34.137878   53.121155
H   15.496302   23.858398   84.343330
H   69.299820    1.997166   45.892597
H   15.363464   86.470139    3.113011
H   93.965378   12.196690   81.767288
H   16.475616   80.342247   86.326927
H    2.305688   46.761147    5.338005
H   15.436272   52.247360   86.993835
H   37.967613   52.308029   54.536461
H   79.823288   63.734039   89.524170
H   87.589203   24.976151   80.921494
H   95.870049   85.399864   11.673432
H   64.945747   43.529762   18.479246
H   44.984116   35.365993   25.268702
H   81.748756   26.414692   65.047630
H   61.974724   59.389202   82.463303
H   58.330284   35.781662   81.452644
H   72.802299   26.865013   40.225727
H   36.848663   64.190086    1.059956
H   11.902475   73.699745   58.321507
H   47.663647   40.938591   79.977760
H   86.192078    2.528820   53.569820
H   23.169518   29.192419   84.249489
H   77.551315   29.097597   25.580536
H   33.199909   28.017099   74.464218
H   95.917816   98.895378   96.677795
H   46.967529   29.861778   32.057323
H   76.843880   52.567204   21.245419
H   83.881119   91.580833   93.439117
H   17.124378   32.581860   99.054916
H   65.258995   46.310867   60.105904
H   37.980045   12.581838   60.283020
H   72.114899   39.458836   34.293037
H   36.797485   28.930122   16.828854
H   43.951374   20.771236   63.935581
H   88.459999   80.159019   38.754314
H   61.090439   79.754173   92.422997
H   62.303169   76.410896   25.590878
H   38.131966   96.160950   35.615749
H   37.077366   90.656784   40.198437
H    1.889428   19.497927   39.602341
H    5.751964   37.189369   43.593712
H   78.060677   32.581963   48.326641
H   51.076710   21.155262   23.416916
H   20.269714   83.134453   50.972221
H   37.281303   85.987251   18.843040
H    8.036420   18.953766   50.931435
H   93.515770   38.225376   18.331036
H   59.052471   70.510231   66.961777
