100
TIME:    0.393, STEP:   393
H   90.745766   85.981270   98.786209
H   90.338188   26.052555    2.790824
H   86.516724    2.178226   18.725403
H   81.542572   16.458452   18.621248
H   91.650986    4.258203   55.049202
H   21.922184    0.785918   17.665403
H   32.373783   87.874672   21.185884
H   88.997269   22.601749   72.110771
H   43.967308   48.508087   75.349907
H   64.100517   22.028904   23.078997
H   63.699127   82.055817    1.894095
H   40.841389   43.389641   64.954842
H   18.263992   37.930450   86.067833
H   35.622807    3.865558   87.147331
H   85.282524   34.918884   31.880781
H   85.722061   77.363106    0.417461
H   92.469948    7.986710    9.136794
H    9.542745   75.589005   85.921677
H   51.383934   94.838943   84.067398
H   82.011238   97.292023   42.999275
H   40.955368   17.092651   46.575752
H    0.031105   44.618652   85.792427
H   80.496910   91.425972   21.105999
H   82.527557   41.395176   77.887726
H   15.527708   55.006664   39.460587
H   44.856976   15.899390   52.337082
H   28.189573   26.140091    7.764749
H   99.381371   74.783096   79.765366
H   19.716705   84.748192   38.594360
H   16.063105   81.112991   14.631046
H   31.561251   57.284813   78.313194
H   90.571716   41.652878   62.882103
H   98.039612   39.728081   33.201500
H   94.707024   37.706512   55.194588
H   71.003197   29.212509   48.658646
H    6.724660   15.357847   19.292074
H   17.493164   90.142921   39.432079
H   47.745979   51.761204   50.173512
H   33.052105   72.118599    4.458942
H   26.177563   75.392387   68.955498
H    8.385204   69.663994   51.599422
H   96.300560   29.495531   21.263800
H   14.626279   65.856644   29.860252
H   54.263519   19.357798   19.157368
H   22.565975   16.385971   89.737244
H   72.932198   70.592094   84.859444
H   40.229786   46.941708   30.981390
H   56.260403   99.429413   92.894577
H   76.516533   99.901840   28.796640
H   34.132252   36.731106   56.176895
H   43.514637   31.702356   57.560612
H   24.231604   27.271145   48.262985
H   17.031336   24.287476   80.045784
H   67.586899    0.789679   49.158100
H    9.472263   92.957108    3.740924
H   94.057968   12.118919   79.248154
H   21.166672   78.207024   93.364922
H   96.795349   39.772835    3.431858
H   21.272285   55.373978   81.313080
H   33.084602   57.996124   52.431725
H   84.491196   60.292953   83.754211
H   84.962799   24.287369   77.573563
H    0.889193   80.353691    6.596651
H   70.026924   43.932304   16.469923
H   47.921600   29.455578   32.160194
H   77.202797   22.735920   69.423088
H   56.037651   61.947292   86.035934
H   53.218620   40.013718   84.990273
H   76.490105   21.547844   35.584354
H   38.347610   67.911766    0.904345
H    9.552431   68.664864   57.433994
H   41.562283   38.482689   85.395424
H   81.367218   98.868507   51.672283
H   21.540718   24.509550   79.851448
H   81.119431   29.202890   31.190437
H   34.949528   32.759857   69.484665
H    2.636395   92.481804   97.987610
H   50.444183   25.023087   36.144283
H   80.390541   52.350971   22.070545
H   80.252029   87.550896   87.063934
H   18.572514   33.347424    3.477662
H   70.811028   46.794144   53.917595
H   42.662067   13.816987   67.331177
H   77.205109   45.791111   27.533943
H   33.194366   24.301170    9.655486
H   42.248051   23.489384   69.074348
H   93.402290   74.778618   42.282909
H   62.281693   73.829521   91.654045
H   63.838814   72.290627   24.985371
H   31.589649   93.115631   38.261349
H   40.105747   94.652847   41.761181
H    7.364762   25.063227   41.012085
H   10.499760   39.406456   49.318504
H   85.212715   37.070900   53.315792
H   49.797382   14.526585   25.117134
H   26.381805   80.212212   47.150047
H   31.407492   90.233986   14.587225
H    8.308122   19.583832   49.747520
H   89.990562   38.544361   12.132565
H   63.648113   68.609871   59.834579
