100
TIME:    8.068, STEP:  8068
H   71.716301   82.147179   91.759537
H   77.658279   42.057690   86.818558
H   18.452456   54.347977   28.633698
H   82.830795    0.247822   97.927437
H   22.902834   19.443027   46.948090
H    2.902959   92.467430   77.747566
H   30.126698    6.126849   21.381275
H   85.757401   86.586510   67.417717
H   55.301033   10.587499   92.235062
H   54.394142   32.229527   23.614731
H   49.789322   90.876236   62.597984
H   47.909393   28.097546   18.639946
H   29.280251   73.639938   23.331640
H   55.601921   80.208046   71.219261
H   78.599922   49.359299   62.909386
H   77.126190    6.072170   63.326447
H   75.326424   15.606972    7.850224
H   73.595261    2.250244   19.849728
H   70.924316   16.814907   88.415771
H   75.148972   34.480862   65.639565
H   85.510170   53.023083   38.264278
H   35.867359   54.794373   32.213531
H   78.022774   29.007105    1.514434
H   69.425201   33.344940    7.873515
H   41.025703   46.328056   96.123940
H    9.566097   88.258835   31.647392
H   66.367294    7.098830   60.052853
H   51.786743   33.026661   33.457085
H   86.601494   81.084213   75.793602
H   10.356539   91.156174   24.771191
H   33.581608   45.528587   71.064598
H   75.175774   29.601513   52.368889
H   38.655964   78.189278   24.626112
H   18.994019   34.338570   31.858381
H   80.165382   48.809196   15.914993
H   73.975235   17.349440   94.061653
H   53.624630    9.067068   44.192104
H   30.527534   11.302198   91.778175
H    4.517764    5.630220   62.463158
H    3.278397   56.884888   72.808838
H   83.861191   33.015007   32.423061
H   20.286980   73.241821   91.846275
H   80.720428   11.885368   84.233376
H   64.173492   48.063599   69.580841
H   56.815796   13.571632   46.510773
H   73.980980   16.798584   15.938421
H    4.768819   63.603462    2.909609
H   56.680050   78.467773   67.779671
H    0.868460   64.257210   22.637653
H   95.129639   53.533558   19.417519
H   42.947605   90.729866   38.475769
H   97.232895   15.087965   44.423004
H   76.225075   68.789734   34.295204
H   89.856628   75.569443   87.835464
H   98.408272   65.646820   68.969513
H    3.644443    4.046970   17.973038
H    7.728953   56.747749   23.321510
H   25.295679   14.964193    5.741118
H   26.580276   79.670464   92.105713
H   26.614273   47.922123   34.137474
H   68.636215    3.373001   85.351234
H   12.568855   52.846268   30.302505
H   21.796673   56.737335   80.223480
H   97.054497   85.712860    8.091319
H   52.556931   16.466230   46.906906
H    5.718796   41.189079   23.227482
H   40.258118   27.294628   56.585430
H   23.053978   78.954643   51.899658
H   59.011749   70.071312   54.222931
H   93.881630   53.877773   84.731506
H   65.837120   46.455566   65.371712
H    8.887616   83.710350   47.426823
H   80.942215   19.236155   54.888332
H   52.598064   38.796009   23.780130
H   51.114502   40.194904   13.022739
H   16.388010   24.655537   53.054535
H   99.529015   27.494530   33.828293
H   11.028455   23.176449   60.006596
H   48.402084   29.820461    7.695169
H    3.863476   69.517204   25.855690
H   68.759590   12.749520   62.196259
H   46.712250   96.792740   12.035637
H   28.193110   42.043613   98.297928
H    5.215352    2.555115   26.530254
H   59.485794   44.218319   65.650902
H   65.609787    5.404128    2.049497
H    5.998310   16.743156    8.256721
H   85.784660   59.465691   11.925369
H   23.118732   44.958549   62.204964
H   53.019802   77.337418   12.629255
H   54.198505    9.080836    3.843340
H   75.249199    2.270476   87.254845
H    2.627947   69.599846   42.915405
H   27.007166    2.649111   70.811638
H   17.100449   27.047249    1.481349
H   60.305313   77.135681   50.726295
H   22.202398   30.684589   73.190544
H   22.704210   85.664085   16.915934
H   24.371941   71.641777   69.258644
H   40.345356   71.593674   20.523808
