100
TIME:    7.063, STEP:  7063
H   39.680008   74.309944   92.679642
H    5.414145   87.597313   23.449604
H    1.177106   82.044731   40.432949
H   82.662109   41.655487   53.016659
H   31.908361   38.887936   74.198532
H   18.489460   93.556221   78.219162
H   82.797913   38.265537   42.788952
H   64.748421   99.641937   59.693542
H   80.005852    7.214730   55.497158
H   81.843941   17.799212   84.262764
H   43.271973   50.437626   59.404793
H   86.265656   77.722397   90.177391
H   93.365562   34.470364   23.205292
H    5.364031   83.305733   94.736809
H   66.393196   39.130852   11.243763
H   17.535660   93.973083   46.750488
H   56.142677   49.132557   16.361109
H   52.106564   51.153397   54.684708
H   55.271473   74.655884   35.467861
H    2.230103   55.819630   97.214531
H   45.148285   53.074020   65.538155
H   39.517029   53.460220   17.798553
H   91.440971   37.179298   30.270582
H   62.804382   21.322237   82.514099
H   76.971138   26.028694   88.701759
H   14.304638   17.883884   26.222830
H   53.029140   48.877365   40.109577
H   36.586418   86.116676    0.236383
H   64.749001   89.902840   23.299959
H   71.820038   16.030907   44.876518
H   94.028282   55.407822   50.576927
H   11.719334   57.365681   45.406761
H   67.866341   51.719429   34.087776
H   76.530174   26.440811   74.198532
H    5.177120   24.901802   54.771271
H   86.612404   38.633591   97.220680
H   57.231911   45.873657   65.002106
H   72.064232   29.696140   20.858078
H   46.941830   27.524885   59.855072
H   97.938103   50.969379   93.736496
H   52.545349   98.533562    8.746283
H    4.982737   69.300705   40.538593
H   72.071442    5.856764   11.642504
H   28.347370   31.194784   71.317619
H   43.992645   53.220608   60.510201
H   86.954460   97.632767   11.855455
H   96.914352    8.947610   93.261971
H   56.618710   68.116592    5.596233
H   71.486641   47.491734   62.730331
H   74.028564   38.236813   89.687050
H   43.016613   87.756195   27.880718
H   48.390156    8.344482   10.394702
H   55.381527   62.962402   92.660530
H   13.130951   91.962646   43.486404
H   78.428177   77.572914   60.424664
H    2.392717    5.104133   52.185608
H   44.014812   85.746391   27.737633
H    0.130535    9.874037   31.629812
H   47.320221   37.202778   69.258110
H   92.934181   70.674637   62.722069
H    5.239685   50.108498   63.707657
H   48.238258   62.200668   75.776566
H   53.568401   25.316803   49.139343
H   28.042850   80.238235   35.379543
H   12.664569   96.733856   53.315586
H   67.456207   91.150780   63.803528
H   20.890905   92.549011    8.063338
H   92.475899   21.478052    3.854842
H    8.919971   42.284195   17.252949
H   73.478477    3.389418   86.860474
H   97.749428   14.835355   77.425087
H   91.636436   17.092934   73.763298
H   46.470703   68.945053   80.654114
H   74.722633    2.402722   83.494415
H    2.703964   38.715069   36.823017
H   92.629723   60.246159   20.679472
H    8.253764   14.479542   16.004698
H   63.812908   88.888084    4.501598
H    0.211073   32.772465   96.481239
H   53.148636   24.264725   12.437358
H   49.085159    2.352180    2.128540
H   71.297737   90.275330   96.114067
H   64.627205   25.236364    2.587015
H   36.072849   16.555218   18.321651
H    8.420042    7.089061   63.073738
H   88.735092   68.492020   32.259491
H   38.876591   89.814827   60.334465
H   69.621483   39.885578   22.345558
H    2.259450    0.916229   70.424568
H   41.874783   18.684269   76.700974
H   13.069813   54.812263   82.619431
H    0.889375   26.684200   68.101326
H   38.205311   39.444828   65.197212
H   29.878502   41.676842    3.046266
H   34.478386   17.068710   78.386841
H   77.296417   16.821871    2.635645
H    1.974976   73.010849   30.989998
H   24.644098   35.936741   37.092102
H   72.248070   67.301949   53.437763
H   77.920723   97.387283   17.338749
