100
TIME:    9.049, STEP:  9049
H    5.375463   92.185341   90.861404
H   50.564621   95.215240   48.673977
H   35.314892   24.924911   17.118893
H   82.995453   59.831841   44.156487
H   14.112364   98.074509   20.350044
H   87.693481   91.404640   74.899261
H   78.711250   72.370644   98.096748
H    8.652740   71.454666   77.345024
H   31.186180   16.267731   30.484495
H   27.599245   46.315235   62.025673
H   58.539093   30.347187   68.103127
H   10.464760   77.270287   48.811058
H   66.724945   14.264639   25.843025
H    7.029510   77.184334   45.873600
H   90.515144   61.731544   15.734985
H   37.683212   20.270470   81.894592
H   96.440163   80.491463   97.154518
H   94.572128   54.514565   85.843338
H   86.207535   57.971821   40.097591
H   48.718273   13.648378   32.430565
H   27.296227   55.361488   11.639215
H   29.916788   56.096664   48.672333
H   64.925011   21.032438   73.447693
H   78.275772   45.080536   35.016521
H    5.940911   68.530365    3.367287
H    4.939375   59.338974   39.330807
H   81.773933   66.322769   79.513901
H   69.012482   78.816437   65.886711
H    7.932566   70.088097   29.420246
H   47.971443   66.876663    2.758558
H   72.192223   33.497318   93.451019
H   37.116596    2.499628   61.552818
H    7.755648    6.414850   13.002339
H   60.444000   44.435791   90.532066
H   55.751152   74.533730   75.601913
H   59.251499   94.188492   90.978065
H   47.715530   73.140877   21.490988
H   89.980385   93.350883   61.002724
H   63.113018   84.255638   67.397095
H   10.879148   65.047203   49.991638
H   16.816462   66.673111   55.535000
H   37.613541   77.088821   41.928127
H   89.162872   17.770569   55.090626
H    1.536345   64.536598   65.496407
H   71.721359   74.874550   30.459196
H   61.318901   35.506634   19.923883
H   12.438342   16.953741   12.330473
H   56.739925   88.571762   28.477985
H   29.541557   83.012001   83.506134
H   15.722515   68.467247   50.827320
H   42.880245   96.020546   48.819260
H   44.910793   24.058613   80.025429
H   96.567772   74.477905   77.321579
H   67.133881   59.565643   31.122765
H   20.300137   51.616493   77.307175
H    4.866278    3.015054   84.577469
H   69.918091   28.441612   16.622793
H   52.248474   22.320921   80.473167
H    3.953943   21.121351   16.793383
H   61.876766   23.324162    6.235497
H   30.518900   57.749317    8.865585
H   77.751213   43.715256   85.916603
H   88.397354   89.795189   12.953369
H   64.419861   91.056747   81.459717
H   91.493164   38.115322   38.262989
H   45.454445   92.421104   81.231865
H   61.550339   61.207127    3.947215
H   55.289459   35.060005   98.797134
H    7.901875   99.582916   92.694733
H   13.805480    3.153399   82.650833
H   34.679852   79.705589   53.606178
H   28.104357   51.138084   19.334221
H   16.980225   70.708702   29.733143
H   31.005466   76.707985   65.492744
H   98.371231   41.639400   87.402985
H   39.582275   87.529045   87.046371
H   88.624832   42.586857   51.229607
H   57.111629   59.034828   14.191535
H   95.446770   26.938953   18.643480
H   55.753716   16.077215   41.341728
H   87.964653   22.898417   20.829811
H   20.326073    3.157756   29.964949
H   90.243172   58.449497   91.723701
H   72.704964   86.501564   36.930813
H   11.720123   82.850876   70.554611
H   43.029774   41.438927   70.173203
H   71.517097   45.416145   55.034447
H    1.561734   80.965065    1.753929
H   43.478031   90.338814   54.181648
H   66.286636   36.976326   47.695724
H   94.345024   62.048435   24.560448
H   47.833263   76.050827    5.948789
H   65.511856   99.028648   18.777643
H   21.816339   62.165272   36.957699
H    0.137383   39.175632   24.021933
H   41.331909   38.396240    0.056081
H   44.335014   86.982430   16.771854
H   20.810648   34.205204   97.220116
H   77.639610   75.877968   87.088692
H    1.280615   46.421261   26.020977
