100
TIME:    2.605, STEP:  2605
H   41.156403   83.129601   96.761063
H   28.807487   45.984253   42.322559
H   24.532393   61.318085   92.758476
H   81.913849   25.324720   97.373596
H   71.838303   81.559753   95.073181
H   87.623909   98.385902   36.727657
H   16.442764   37.239967   94.167244
H   15.138435   13.968098   69.012352
H   89.592064   35.833344   36.111401
H    3.653852   53.787300    9.697459
H   57.944275   71.060394   88.822647
H   56.416893   54.265808    7.502643
H   77.557655    4.101164   66.212303
H   26.096748   97.046516   55.482693
H   12.186558   37.337830   25.551859
H   96.782333   83.886200   16.803759
H   14.628663   54.270119   10.531777
H   56.812462   68.019463    9.233624
H   85.838997   87.635864    0.605345
H   22.336098   50.493244   93.693184
H    9.692230   96.880768   86.538773
H   12.124237   47.542160   97.438492
H   50.963524   73.435921   57.818420
H   77.008774   67.924591   13.603234
H   36.413445   79.572906   55.781807
H   34.714367   49.987324   45.004776
H   37.446648   34.189976   51.659786
H   12.739910   78.032310   52.880634
H   67.813934   85.438148   34.031731
H    0.881351   26.366531   90.478966
H   18.577662   55.650234    3.279639
H   30.238350   80.537880   58.106163
H   53.851040   77.888268   32.475929
H   88.168251   34.989975   62.006409
H   16.018017   62.002106   83.354713
H   99.048569   89.120964   11.685040
H   29.652733    9.134680   13.728995
H   56.320122   11.275150    6.269883
H   35.115166   24.657598   91.868683
H   17.831896   68.312675   42.990368
H   57.216862   45.566448    3.718012
H   97.498589   28.771706   25.186041
H   33.679226   79.121353   89.635429
H   13.012480   56.431976   35.437248
H   30.691481   29.111225   79.027687
H   44.479496   12.603168   93.747078
H   62.084362   66.506439   50.464325
H   56.378536   22.204237   29.760536
H   41.175682   16.703785   40.559799
H   80.518974   70.395958    1.468507
H   43.345875   18.147623   80.883545
H   31.730036   22.014278    3.047440
H   62.917778   37.113403   51.576027
H   16.368748   64.708031   46.767426
H   33.376350   86.873398   22.510023
H   96.825668    9.794220    3.946457
H   61.396000   14.381049    3.744560
H   32.082855   30.877823   46.457474
H   95.728355   48.836697   11.495573
H   87.115784   28.016890   89.518196
H   24.026228   57.425831   11.290164
H    6.457367    3.695858   77.487289
H   50.928913   29.512213   54.845139
H   21.919641   55.965050   56.417568
H   35.718723   52.787655   38.159698
H   41.315865   12.770607    0.213274
H   78.564308   38.424252   92.831070
H    0.420446   66.519897   90.736664
H   86.734886   62.607643   96.850624
H   83.161194   79.167549   96.247742
H   39.312675   18.155375   30.901005
H   59.172081   65.070206   47.348061
H   37.141251   89.452965   94.952873
H   72.863548   84.530182   48.385658
H   87.769066   32.351246   98.874130
H   87.241432   74.529655   20.646477
H    3.471664    0.762378   37.120625
H   54.367962   80.386635   58.305820
H   86.431992   45.867023   46.744133
H   71.771217   67.081680   96.498215
H   61.860020   56.231579   35.682987
H   36.780006   61.240189   68.948952
H   82.619308   50.738251   78.013306
H   29.370785   35.074799   25.491821
H   25.487816   85.940048   95.226997
H   91.335693    4.739571   22.682476
H   41.136787   13.948212   47.759811
H   97.890518   96.731979   68.654274
H    9.743418   49.129646    6.887619
H   36.021374    2.096779   17.340775
H   30.629974   14.094724   88.474564
H   71.034698   91.419243   83.159676
H   52.425617    5.688953   20.445179
H   99.010262   71.246376    2.460918
H   11.551353   16.389160   75.947166
H    9.083953   92.863228   32.897476
H   55.829575   17.175915   87.373451
H   16.429579   38.417694   14.354074
H   84.617363   48.079426   26.841812
H    1.020592   11.791695   46.787140
