100
TIME:    8.602, STEP:  8602
H   35.603508   33.176537   91.270645
H   62.910049   70.995010   20.488220
H   27.631395   92.766708   22.365700
H   82.920425   78.247673   68.659126
H   18.117807   62.245487   32.468750
H   94.623291   91.888908   30.630539
H    2.140088   42.186676   63.140766
H   43.786057   32.784168   18.386246
H   42.174294   59.245453   58.623112
H   39.808876   39.896976   44.523811
H    0.117951   12.362590   11.161688
H   27.526688   54.864361   80.629524
H   95.228561   41.318916   70.263412
H   29.161253   78.562111   11.855465
H   85.085884    1.659787   37.230354
H   55.655701   59.366600   18.999676
H   32.385445   50.925327   56.462349
H   85.010880   76.265709    1.339725
H   79.243622   39.218365   16.549198
H   60.760181   23.141058    1.996782
H   53.821846   99.860260   23.771559
H   87.062462   55.503265   86.738541
H   70.893105   24.666155   86.236465
H   19.807722   39.733124   68.215744
H   21.927414    3.977821    0.067633
H    7.047817   72.516525   81.395935
H   20.318502   84.902298   70.647018
H    6.730375   57.951984   51.110146
H   98.212669   29.532450   50.550499
H   30.831192   77.939804   67.222931
H   54.599873   93.413948   28.816216
H    8.892843   14.849129    2.933852
H   76.270767   39.118690   72.733047
H   41.557541   85.400787    9.363256
H   66.875679    8.377861   48.405910
H   20.394602   59.177475   92.383125
H    4.843107   89.510506   86.269371
H    8.456465    1.529395   29.460495
H   81.979179   93.995567   10.714821
H   52.980644    6.892486   14.821641
H   47.365433   51.336220   45.003872
H   75.284149   75.335907   19.108582
H   85.316010   15.088627   22.804943
H   30.077396   57.030685   21.792789
H   10.496368   92.506004   92.207207
H   67.087608   26.981789   18.107878
H    8.943597   92.643623    8.037708
H   56.712643   83.967804    0.820576
H   16.476547   20.032867    1.335569
H    6.339819   61.661381   82.081108
H   42.910938   39.176247   44.106171
H   23.186239   65.538116    9.368354
H   87.298470   71.886047    3.281294
H   77.487671   66.859024   11.399066
H   55.890999   12.442700   73.508057
H    4.309540    3.485254   99.794403
H   41.580872   41.339516   74.109200
H   85.533386   64.534492   91.986473
H   68.698021    2.233056   51.110870
H   91.375954   88.966171   18.949242
H    2.320922   78.537720   43.715954
H   93.616112   47.875870    6.140659
H   58.051487   20.297960   43.605499
H   33.723446   88.621765   93.593704
H   73.752579   73.817230   96.635330
H   72.914497   14.642318   54.801731
H   97.413467   45.754879   82.366318
H   86.166672    9.494603   77.427948
H   85.624512   31.701469   20.729782
H    4.727003   80.700089   83.598907
H   48.877094   10.119761   58.967232
H   64.912415   65.979881   86.569016
H   46.124985   92.821342   41.195293
H   40.844296    4.999794   92.052467
H   76.838348   40.981205   53.511036
H   29.013636   58.881584   17.124231
H   48.028152   81.275635   43.300568
H   36.114170   88.261436   89.502502
H   74.009377   28.251934   13.654554
H   77.675377   40.428154   79.851280
H   79.213722   18.273996   94.112732
H   86.783310    0.255983   67.359718
H   61.971214   50.974033   49.154659
H   41.952965   48.251198   77.757133
H   33.484909   10.814642   13.886101
H   53.318768   25.018867   39.132294
H   41.662983   77.916679   33.719826
H   94.372856   16.733219    6.388524
H   34.201908   15.226915   57.837532
H    5.806006   55.368286   31.718256
H   76.051964   37.913464   15.120627
H   14.759790   42.431702   97.431938
H   36.858189   85.619194   84.210449
H   78.615097   35.046253    6.818285
H    7.866516   79.215134   13.751509
H    4.411533   56.048157   23.144661
H   79.816185   61.329857   42.480003
H   21.673464   12.087621    6.194948
H   98.933769   73.947716   24.529613
H   73.513748   57.890232   69.082932
