100
TIME:    6.362, STEP:  6362
H   87.086502   38.594292   93.321426
H   24.772064   49.612331   79.250526
H   89.122711   31.611172   48.663837
H   82.544449   70.535797   91.439697
H   38.187195   82.699783   93.206055
H   29.362362   94.315666    8.796093
H   19.538227   90.929939   87.969765
H   19.845642   38.995495   24.055874
H   97.237770   74.612991   99.620888
H    0.990649    7.732808   56.815769
H    8.477280   22.231192   26.929790
H   13.019951   42.584690   40.074516
H   38.094406   76.867577   92.861259
H   40.072243   85.466408   41.391537
H   57.878853    1.747632   44.953503
H   45.722076   55.285255    4.939131
H   12.512986    2.768590   52.546303
H   37.115543   85.264252   78.984901
H   44.355785   45.248039   98.538177
H   21.114616   70.706093   49.487144
H   86.746628   22.859943   84.567070
H   72.311478   52.529633   77.495224
H    0.800410   42.880486   50.326584
H   27.936100   12.936251   34.575756
H    2.043402   81.621597   83.524696
H   17.544737   38.583130   92.163490
H   13.476147   78.017166   26.198896
H   95.735092   53.396355   77.067917
H   49.506615   26.302223   56.436737
H   44.939960   33.380486   89.149673
H   66.442238   92.548637    6.037766
H   67.457825   76.735046   10.301811
H   18.487507    3.008596   70.936157
H   46.911812   90.683456    3.731037
H   22.623688   77.977394   12.119454
H   25.675230   83.727669   99.424141
H   89.997627   71.545044    9.765996
H    1.040670   42.526485   71.389320
H   76.531189   42.798576   27.786947
H   63.963139   16.593925   38.583332
H    0.454553   74.477333   92.231667
H   64.059265   66.551727    4.751775
H   66.038666    1.651564   61.006927
H   73.107590   19.428732    2.778868
H    4.799763   80.879440    0.523323
H   96.003624   84.262253    9.007536
H   91.437790   70.825089   86.533928
H   56.579182   60.896515   62.222431
H   50.995712    5.549852   90.690994
H   59.312008   27.566031   38.700813
H   43.064747   55.433594   20.492172
H   14.315416   73.393936   56.410500
H   40.839756   58.897766   33.373379
H   29.362755    3.398316   12.554065
H   34.243492   16.139950   54.461414
H    1.519623    5.841516   76.049301
H   99.576042    5.973634   61.066597
H   52.327789   76.075020   49.685410
H   92.034668    7.579448   23.072075
H   39.192093   16.792126   82.660179
H   61.020557   82.708878   18.364872
H   73.118111   68.725479    7.492498
H    5.976155   73.151527   97.209015
H   79.907333   76.419617   54.413807
H   84.841797   52.722477   88.034081
H   10.519333   25.999077   22.354933
H   77.133163   68.310944   74.219376
H   40.898994   81.386574   70.342987
H   73.984352   92.653595   61.220547
H   59.275421   68.133720   88.336578
H   20.010300   62.530685   85.832466
H   49.390652   40.382690   22.417286
H   92.176468    3.617142   98.624084
H   90.157555   46.767788   25.144751
H   68.907097   37.711346   83.680557
H   76.060982   15.316875   67.846375
H   44.588467   75.153954    3.572556
H   30.878658   34.724480   65.790779
H   66.592278   34.831524   88.662163
H   87.526901   62.451454   72.829216
H   35.367012   95.099472   60.230778
H   18.696718   85.729355   54.758877
H   20.285309   13.513381   35.828293
H   87.844963   56.569359   82.346550
H   42.553001   50.939270   31.027740
H    4.866696   42.741341   83.579712
H   92.058311   40.783562   26.908178
H   58.347466   95.979858   29.613770
H   87.712021   39.945793   76.157845
H    3.851933   47.527142   51.641922
H   84.381889   16.961952   67.815598
H   49.022472   73.962631   54.745216
H   93.270050   18.410336   10.987803
H   62.129002   99.148384   55.778870
H   46.597420   79.860641   62.278049
H   19.396744   44.502716   38.843491
H   57.616600   32.781647   71.304840
H   25.997194    1.251367   51.163231
H    5.642152   64.274864   12.152420
H   34.379269   15.376072   84.868889
