100
TIME:    9.838, STEP:  9838
H   52.017975   19.830349   90.139053
H   28.774143   37.971302   98.421745
H   48.877033   81.689293    7.856426
H   83.127884   27.325609    0.907452
H    7.042353   61.316071   98.958168
H   75.461670   90.549858   53.036438
H   37.360531   25.646898   59.797588
H   46.638901   39.713627    4.900568
H   11.791054   40.408432   80.820915
H    6.046095   57.644108   92.918221
H   85.148163   62.094360   92.100945
H   80.352669   16.818310   92.649879
H   16.413193   66.506554   47.434151
H   67.962631   74.752419    5.915402
H    0.098350   91.254181   77.789818
H    5.957538   51.261520   16.400711
H   32.993660   32.677933   68.980301
H   11.447051   16.121605   58.491524
H   98.499542   91.068634   81.673721
H   27.463093   96.892303   86.149406
H   80.475357   76.814522   90.222107
H    5.558990   57.144073   81.481720
H   54.390724   14.618238   50.874222
H    4.965439   54.519257   76.419540
H   77.721420    5.957138    9.191284
H    1.217481   36.079269   65.083199
H   13.736862   33.522434   95.164841
H    2.440331   15.644292   91.963585
H   25.089108   41.672062   92.125076
H   78.225914   47.349106   65.481361
H    3.241746    4.248768   31.027847
H   86.934738   80.697266   88.511162
H   63.334320   48.687225   84.081688
H   93.780502   72.128716   57.291878
H   36.115242   14.795296   23.604689
H   27.837511   55.989544   88.497993
H   23.391541   44.246834   83.661331
H   57.367458   78.915901   16.681938
H   29.806614   67.063683   90.937477
H   36.563946   91.181915   12.067616
H   62.893784   93.749237   74.123497
H   71.120628   80.186905   82.199455
H   95.952972   22.504978   12.082228
H   51.162685   77.779701   42.640194
H    3.262317   43.716648   97.966400
H   51.139771   50.555614   23.129316
H   18.607555   59.866360   19.906858
H   56.788082   96.698212   77.296875
H   52.602615   17.667576   52.033417
H   32.282440   80.482353   95.659645
H   46.061604   20.091171   52.165939
H   83.255600   50.846191   28.232637
H   12.932520   79.052795   31.496311
H   48.863388   46.689735   65.940010
H   57.478798   20.759851   84.013000
H    5.848976    2.185102   57.718048
H   19.938957    5.674909   91.663033
H   93.498489   47.809578   60.151024
H   66.183174   54.462891   56.222637
H    9.813133   83.969574   83.794472
H   80.292847   21.059004   47.354992
H   49.748070   36.371353   50.218094
H   41.982845   35.988640   58.864578
H   18.597553   95.354736   60.040894
H   22.809311   75.098671   11.738454
H   96.986298   53.197441   27.884195
H   98.246803   88.487305   42.041332
H    0.787654   80.182869   36.515900
H   47.227562   42.890396   43.211155
H   29.829636   42.780865   80.977386
H    9.622595   26.018604   44.143379
H   63.130615   24.940819   77.166473
H   65.536438   31.682627    9.501293
H   13.638943   26.773621   18.613020
H   36.376411   42.801182   47.225315
H   58.236992   38.096279   33.956978
H   60.283150   74.296921   65.224632
H   94.179161    7.446914   57.767365
H   33.281151   24.621410   27.450144
H   17.060940   73.096626   73.368782
H    3.410614   31.060984   67.987297
H   79.530937    8.279717   63.955551
H   40.148613   71.644447   66.865295
H   26.988144   54.018387   64.867088
H   73.303085   33.493942   94.070618
H   24.868664   70.421928   24.963947
H   24.212694   88.049095   92.656898
H   14.249846   17.830904   93.578064
H   59.851322   46.407829   47.728645
H   96.527130    4.512665   75.900055
H   26.634817    4.654312   41.222679
H    6.211275   35.390671   20.979815
H   16.088108   22.703405   79.792229
H   94.831398    9.787488   95.131233
H   86.496964   68.502357   42.151619
H    6.500088    7.240819   59.303436
H   81.708336   32.260208   71.395584
H   19.287691   73.243683   81.376549
H   40.053276   79.285057   21.001690
H   50.286568   26.176506   50.014729
