100
TIME:    1.111, STEP:  1111
H   42.189613   20.136848   98.128860
H   70.365746   64.983467   48.081753
H   98.852966   53.833645   10.294907
H   81.663086   86.876244   79.266228
H   85.219925   61.809074   35.580727
H   10.788342    0.004486   88.771629
H   94.743401   36.357891   77.334419
H   32.563889   84.717545    6.185057
H   26.317497   79.475220   30.153196
H   44.478661   32.335670   51.197083
H   96.912521   10.945922   32.732620
H   13.435429   79.379478   13.846960
H   72.590683   94.490181   14.704827
H    0.071808    1.651826   41.788128
H   94.014305   70.785461   97.366837
H   56.853500   14.560085   40.817856
H   34.743782   55.469193   74.509300
H   24.885780   40.672836   61.030075
H   62.564339   24.960825   21.894754
H   62.583549   82.221298   91.974724
H   98.348328   45.614281   27.090153
H   68.877739   45.566330   24.655476
H   70.910576   85.586525    0.562145
H   15.817627   50.006443   24.561745
H   89.848747   98.063637   44.759636
H   41.564754   94.505554   85.038757
H   66.277023   96.293472   22.012770
H   38.798019    8.297105    3.495998
H   35.328735   49.890415    4.655400
H   43.593472   63.342667   71.709984
H   59.805332   21.672945   21.496868
H   35.906284   21.817383   96.413261
H   48.615597   87.196541   97.884605
H   25.044380   71.906227   24.946234
H   53.156181   74.937019   92.381363
H   69.151978   71.759171   16.821539
H   86.358269   63.848976   96.007881
H   18.072166   38.619709    0.842571
H    0.772934   56.791420   35.642944
H   58.548866    8.174749   25.444895
H   59.315590   94.303612   68.519211
H   31.770836   61.722046   54.996738
H   20.810530   70.162277   81.721565
H    8.414862   31.390017   89.361702
H   60.283539   88.056564   51.180573
H   63.754047   84.107399   87.683174
H   47.811207   85.672913   37.116646
H   56.298748    6.822210   37.320293
H   97.507866   40.435875    0.154698
H   49.191013   47.659527    5.960909
H   43.459858   62.383705   65.131073
H   59.125252   60.647381    1.125693
H   31.925760   28.450684   38.344597
H   50.962635   89.077629   80.842300
H   52.313972   55.901791    9.833710
H   94.956345   11.364338   54.805740
H   66.682907   57.489586   61.652794
H   43.330994   71.967384   84.938187
H   77.898735   85.710617   26.190929
H   85.704178   13.182440   32.010094
H   29.783842   26.905121   27.773567
H   59.479584   17.604324   45.086395
H   49.591919   31.392139   57.339211
H   19.329233   47.838051   96.974907
H   76.420753   72.111168   99.026115
H   33.094704   87.042030   11.876474
H   98.430496   86.772705   20.701633
H    3.621324   81.076096   19.314825
H   12.273314   69.956955   90.552101
H   52.891449    4.022504   99.393677
H   86.752464   19.808634   48.822727
H   82.359818   14.653723   37.963768
H   34.553040   63.349873   33.261044
H    5.737851   79.073959   37.178566
H   15.738074   30.224520   85.618950
H   51.925556   78.777977   21.173782
H   67.827446   30.252722   10.692812
H   84.177124   78.075890   75.797211
H   14.804941   50.247898   30.076504
H   45.040054   48.447426   25.207428
H   32.623341   40.775463   46.390148
H   24.682018   51.483231   93.875931
H   88.093239   25.800154   35.717045
H   26.596510    7.231301   61.952461
H   98.232376   79.390793   40.053398
H   25.721210   49.864613   18.934654
H   41.355904   22.574181   76.519821
H   73.840073   16.345131   84.193138
H   78.738716   32.312874   19.110317
H   68.110336   63.567894   63.930813
H   69.489235   33.422871   56.924023
H   60.489704   79.064064   54.690414
H   56.567665   60.918190    4.864583
H   54.610870   80.623634    1.728196
H   37.384449   50.213638   41.615440
H   85.685608   51.858574   10.064409
H   74.416489   31.438292   73.294388
H   10.944364   25.697174   38.260353
H   55.786522   41.639378   51.987278
H    8.238297   50.167133   90.680489
