100
TIME:    4.257, STEP:  4257
H   29.438286   31.632660   95.248611
H   82.907814   35.544533   46.523705
H   52.928665   80.169868   73.373894
H   82.191132   57.262077    6.821679
H   57.041489   13.974826   50.279419
H   62.012089   96.596169    0.330575
H   29.861389   48.791431   23.355951
H   85.294487   56.885639   17.329838
H   48.982750   77.000153   32.123600
H   58.507698   77.507576   74.390533
H    4.279251   37.532017   29.694027
H   93.361641   37.071907   89.911522
H   72.419174    4.160435    2.025165
H   44.298958   91.954597   81.199829
H   32.283165   89.775238   46.142803
H   30.360363   39.396355   79.672791
H   81.784462   63.536709   60.919853
H   92.105553   87.682625   51.958469
H   11.572575   56.941513   87.637833
H   77.825951   15.414000    6.168950
H   11.660294   32.419636   41.700867
H   70.503082   49.735214   56.755402
H   28.906944   60.000313   10.551824
H   23.520103   87.737701   90.910858
H   77.329620   48.558784   67.978737
H   27.140512    0.805842   90.109581
H   94.992775   65.520767   84.434303
H   73.347900   55.142075    7.483983
H    3.734899   35.320004   55.941292
H   64.225464   85.478722   21.807716
H   83.595360    3.789459   72.578651
H   34.546673   34.895103    5.172233
H   70.215675   57.019783   81.301132
H   57.970047   83.594147   92.411201
H   74.953491   37.123650   83.949921
H   42.691105   18.855717    6.044849
H   88.100662   48.635727   43.900196
H   88.042625   81.047020   22.846516
H   65.385406   88.665581   31.776934
H   62.230682   13.656903   72.967041
H   44.315582    2.253608   42.638775
H   49.026230    2.913436    2.799295
H   47.908871   89.027908    8.961884
H    7.521124   84.113281   96.961914
H   87.392311   63.929489   20.393789
H   23.166538   44.112568    0.452980
H   74.992477   56.348167   66.330605
H   56.466763   39.215683   31.976936
H   89.467331   79.884674   74.661926
H   15.159610   95.527855   85.924294
H   43.219837   58.657707   98.301941
H   12.015020   68.722336   94.597015
H   97.175194   46.692261   55.630405
H   78.109123   37.748917   19.665886
H    1.845771   31.661509   36.554653
H   98.892685    8.055822   47.708481
H   66.125702   66.712746   60.863579
H    9.070727   74.866432    3.903913
H   26.017355   18.637451   84.671196
H   78.100204   54.996189   42.531380
H   28.235826   80.601341   82.486458
H   47.825371   88.318527    2.737126
H   63.069469   16.792904   41.555199
H   35.359833   64.952866   11.560787
H    1.289063   20.844105   92.004616
H   39.830788   30.644630   97.890869
H   46.021713   95.538849   72.590073
H   86.305550   60.999710   69.711815
H   69.071945   43.905457   93.240387
H   16.633558   62.259010   92.769104
H   86.852943    5.753263   11.081593
H   22.958321   10.243520   68.300499
H   29.427584    7.738865   52.600845
H   36.497295   79.988686   50.217278
H   67.416756   34.708149   24.107721
H   26.295321   80.407066    9.487940
H   53.463547   57.578823   66.336143
H   31.981930   72.366722   49.539009
H   65.649559   41.014576   65.182625
H   90.753784   77.109291   54.176842
H   94.176895   73.322281   34.419277
H   60.733940   72.029007   30.810247
H   87.136940   78.315277   35.358257
H   43.024651   76.439644   74.605209
H   45.049133   82.607079   35.083923
H   53.319210   65.423546   37.402313
H   51.470131   93.834335   26.533827
H   24.478651   64.468529   51.471939
H   44.029160   57.149086   93.374031
H   89.962479   34.131378   76.393600
H   98.236542    3.298085   23.361856
H   93.271317   15.649218   14.641951
H   58.335442   55.249352   48.204876
H   58.683857   71.452393   13.846678
H   82.989098   68.414330   13.908532
H   45.532349   27.626591   47.569435
H   24.701584   11.980996   92.364716
H   22.491987   52.483490   87.916496
H    5.919529   55.200550   88.468269
H    3.630618   69.389503   87.649811
