100
TIME:    7.935, STEP:  7935
H   80.710686   94.343987   91.881302
H   81.331528   34.850208   78.432999
H   16.166315   44.779266   30.194828
H   82.808472    5.727760    5.217599
H   24.094610    8.782491   50.554367
H    4.965610   92.611519   64.576637
H   37.096874   97.146011   10.980503
H   96.210938   75.079704   79.628731
H   58.570427   23.375267    0.606458
H   58.026802   30.319841   18.406734
H   62.160660   85.524658   75.409592
H   52.985985   21.430904   28.106678
H   37.761192   81.690643   36.548565
H   62.187386   80.617989   61.098255
H   76.984505   61.239517   69.305939
H   82.473709   17.705017   74.366486
H   86.021461    6.810219   95.742706
H   70.752045    8.721920   24.460060
H   68.852280   11.235021   81.408188
H   78.732925   37.304798   56.584297
H   93.402580   66.263855   41.873600
H   23.116518   54.617813   43.539719
H   79.798515   30.088278    5.319848
H   81.782333   31.753878   17.751411
H   45.782661   56.875961   95.141701
H   10.193188   92.179672   44.163818
H   77.835541   12.627707   57.413593
H   63.008415   26.818670   29.060686
H   83.709572   69.017288   82.080742
H    5.256863   94.447891   14.198425
H   28.347075   33.602707   81.587135
H   66.778038   33.275776   64.681374
H   29.287298   87.920341   12.644422
H   13.374169   46.527260   37.461594
H   83.475365   58.879173    7.822937
H   62.413639    6.931924   94.479713
H   40.868717   13.938181   33.712185
H   36.024353   13.736233   82.392113
H   10.131976    8.527723   75.351997
H   15.805489   69.335953   62.344994
H   92.950958   28.451857   29.289640
H   31.495461   72.720261   85.055840
H   79.575836   11.087553   74.626106
H   72.666168   45.831017   56.576900
H   68.352409   18.818813   35.129791
H   75.697868   14.262317   15.398088
H    3.729123   56.370613    1.632280
H   56.671932   77.097916   59.550381
H   96.980293   75.272896   27.943062
H   92.337158   51.509212   28.716824
H   42.956738    3.570135   37.073441
H   90.769196   27.429369   53.153564
H   73.467094   68.018555   42.019173
H   92.937286   77.738892   81.966385
H    8.998119   53.990997   67.839127
H    3.478792    4.186873   22.500671
H   99.297440   60.585381   10.672034
H   35.198898   27.524775    9.167031
H   16.090717   74.051003    2.315838
H   35.390495   37.698925   37.920311
H   60.246593    9.557909   95.721565
H   17.289284   54.084213   36.320602
H   12.767280   65.812897   89.343689
H   87.922112   84.988358   11.702416
H   47.277397   27.088717   34.521362
H   13.888729   47.800926   15.363463
H   50.928802   22.696472   50.164349
H   32.241158   71.348381   45.541489
H   52.382652   79.627846   62.564857
H   91.180473   47.197941   85.013596
H   70.060341   55.504990   66.966835
H   19.839718   88.126366   37.678509
H   89.613922   25.815023   58.298771
H   55.525501   47.213024   31.682180
H   44.707626   39.999065    2.938803
H   13.243648   16.131470   62.003258
H   87.449913   39.006409   31.469206
H    4.780569   31.872509   52.661114
H   42.024635   30.211124    6.210903
H   10.385695   76.762230   37.313789
H   66.155846   11.373574   54.247025
H   36.732582   95.930237   23.162434
H   19.780661   39.819370   85.632324
H   96.064995   91.174072   38.677341
H   65.961670   52.537922   78.543800
H   68.670151    0.518807   92.813568
H   97.115486   26.413338    1.914687
H   83.645653   70.108398   13.304359
H   20.358215   52.363899   63.292732
H   64.779205   82.808731    7.875084
H   48.755604    1.899502    1.034508
H   65.408546   92.267548   84.720100
H   94.102402   65.610008   32.630310
H   14.153334   94.580162   61.843639
H   19.400288   38.960953   98.425171
H   49.320068   82.387817   57.595879
H   32.758965   23.052452   80.839424
H   22.960932   79.082680   19.586142
H   30.707787   71.067451   80.398125
H   32.084606   75.007156   33.336544
