100
TIME:    2.610, STEP:  2610
H   40.818268   82.671074   96.756485
H   28.668404   46.255363   42.637959
H   24.618338   61.677811   92.699806
H   81.914688   25.118708   97.099548
H   71.793518   81.960526   94.937607
H   87.546394   98.380486   37.222843
H   16.180714   37.577606   94.558250
H   14.745445   14.400656   68.553291
H   89.469154   35.352615   35.796650
H    3.517229   53.859093    9.893268
H   57.479187   71.261581   88.341003
H   56.226044   54.516434    7.146746
H   77.239586    3.798651   65.715324
H   25.849174   97.031105   55.863209
H   12.247383   36.891205   25.311514
H   96.581299   83.448883   16.388700
H   14.226584   54.600815   10.986947
H   56.919312   67.776314    9.060265
H   85.916893   87.845596    0.868752
H   22.201401   50.387081   94.033607
H    9.395523   96.383026   86.403046
H   12.603592   47.548798   97.012695
H   50.896767   73.395256   57.675369
H   76.544220   67.984558   13.231883
H   36.234612   79.176331   55.818695
H   34.691441   49.838360   44.536140
H   37.015472   33.982113   51.759007
H   12.318033   78.265694   53.045925
H   67.922653   85.891792   33.795372
H    1.073066   26.242783   90.876457
H   18.774443   56.098576    2.884055
H   30.554054   80.399712   57.643288
H   54.203251   77.522438   32.926369
H   88.379509   34.531754   61.795761
H   15.893723   61.624146   83.659203
H   99.483292   89.513725   11.667855
H   30.132298    8.951555   14.122968
H   56.113480   11.183636    6.622709
H   34.904099   24.548670   91.384140
H   17.360952   67.844612   43.383778
H   56.875179   45.737995    3.835836
H   97.049217   28.996124   25.420931
H   33.722294   79.151337   89.996605
H   12.693209   56.515785   35.926102
H   30.257769   28.913967   79.455544
H   44.414989   12.698536   93.767372
H   62.123463   66.778351   50.512352
H   56.378803   22.255716   30.069908
H   41.321823   16.289700   40.360329
H   80.623802   70.472023    1.118811
H   43.345493   17.664892   80.936264
H   31.973013   21.550316    2.719187
H   63.021500   37.142395   51.285614
H   16.252972   64.626472   46.988068
H   32.978287   87.311707   22.552443
H   96.831924    9.788965    3.776245
H   61.712963   14.236768    4.220109
H   31.710541   30.405621   46.328690
H   96.122719   49.047955   11.111719
H   86.785812   28.401220   89.375984
H   24.341646   57.193325   10.900331
H    6.279926    3.649309   77.261078
H   51.268078   29.171236   54.502121
H   22.262983   55.992249   56.281803
H   35.917202   52.388294   38.625359
H   41.008705   12.522041    0.508904
H   78.163155   38.597095   93.072464
H    0.075054   66.805847   90.975693
H   86.984062   62.248375   96.537056
H   83.262512   79.419014   96.237213
H   39.153908   17.815161   30.841019
H   58.759827   64.904266   47.714157
H   36.815247   89.205620   94.824699
H   72.753532   84.213791   48.088493
H   88.010155   32.358379   99.253159
H   87.359612   74.850090   20.310040
H    3.925634    0.329008   37.209049
H   54.602871   80.059715   58.581966
H   86.671783   45.852337   46.799942
H   71.526009   66.809387   96.067459
H   61.957867   56.283306   35.981831
H   37.155182   61.272842   68.530861
H   82.935623   50.821716   78.489532
H   29.714756   35.502655   25.035126
H   25.244343   85.627319   94.742302
H   91.220642    4.923229   23.029690
H   41.470726   13.584671   47.998230
H   97.971008   96.331665   68.602242
H    9.847187   48.851250    6.846711
H   35.579288    1.891052   17.519512
H   30.834595   14.364709   88.580154
H   71.404648   91.795219   83.254967
H   52.746433    5.838766   20.832008
H   99.493507   71.549644    2.798037
H   11.464893   15.941277   76.062065
H    9.496932   92.665779   32.639221
H   55.432693   17.462856   87.085899
H   16.447927   38.460266   14.274071
H   84.379173   48.100979   26.422997
H    1.331110   11.663263   46.305573
