100
TIME:    9.194, STEP:  9194
H   95.569733   78.888069   90.728653
H   46.559952    3.072288   57.817234
H   37.807301   35.356590   15.416813
H   83.019791   53.858025   36.207993
H   12.813059    9.696775   16.418941
H   85.445557   91.247551   89.258545
H   71.111229   82.161064    9.435955
H   97.256027   83.999680   64.032265
H   27.621803    2.326285   21.357279
H   23.638273   48.397221   67.703011
H   45.051544   36.181458   54.135460
H    4.930130   84.538429   38.489632
H   57.478806    5.488384   11.433407
H   99.850143   76.737404   56.908566
H   92.276314   48.779427    8.762215
H   31.853195    7.588096   69.858459
H   84.780159   90.082756   10.354445
H   97.674088   47.458824   80.816483
H   88.466522   64.055145   47.736332
H   44.812061   10.569098   42.302849
H   18.691719   40.925873    7.703401
H   43.818081   56.289154   36.324234
H   62.989052   19.853716   69.299210
H   64.803711   46.815155   24.247458
H    0.755066   57.031204    4.437637
H    4.255428   55.064377   25.685320
H   69.270958   60.295170   82.390182
H   56.777878   85.584549   70.679039
H   11.085687   83.243767   22.566399
H   53.531517   63.287949   14.285313
H   77.898323   46.499218   81.979080
H   46.272022   98.493347   48.129433
H   17.969543   95.806061   26.065084
H   66.570480   31.147369   84.423286
H   52.142525   63.555183   84.423248
H   71.856247    5.545670   90.522285
H   61.622353   67.830818   32.916462
H   83.986656   90.698067   71.235329
H   56.992069   81.096153   53.345352
H   97.221695   51.472343   61.400520
H    6.907103   71.649078   58.951138
H   25.393768   77.657440   49.330128
H   90.410736   18.640644   65.563774
H   92.278969   66.970375   79.674263
H   59.143585   69.155174   42.868069
H   59.448212   38.272289   20.512968
H   13.571984   24.839731   13.722980
H   56.748775   90.065216   37.449772
H   33.779648   71.002419   77.722595
H   18.765867   70.675346   40.688427
H   42.870289   82.021904   50.348114
H   51.957684   10.603699   70.507149
H   99.574593   75.318665   68.900711
H   63.775345   57.199348   37.521309
H    8.754631   64.324097   78.539551
H    5.046875    2.862528   79.641327
H   79.111130   24.257729   30.413458
H   41.451355    8.627054   76.738426
H   15.389977   27.248384    5.661619
H   52.308704   34.469753    2.111351
H   39.666492   51.006649   97.561028
H   72.604881   42.365616   79.356468
H   98.240875   79.900780    3.010284
H   74.376221   91.846619   77.523636
H   97.247940   26.533863   51.766026
H   36.546822   85.212700   89.805397
H   49.916885   66.220093   10.948116
H   45.273361   43.352547    5.728973
H   15.128811   89.164139   83.601257
H   16.750351   10.436199   82.343292
H   30.074715   69.839943   51.867134
H   16.163916   46.323631   29.962635
H    7.525867   63.535770   26.014996
H   27.813900   67.530434   56.877174
H    5.355755   41.852909   98.397018
H   43.010582   96.821648   77.289139
H    1.793832   30.036312   53.801666
H   63.922886   49.554161   22.199768
H    2.400424   26.513042   20.261942
H   48.642662    8.178225   28.849815
H   90.803322   24.398508   29.496269
H   31.206715    4.099047   17.834230
H   99.414085   60.874424    5.532454
H   82.681236   98.909401   23.687748
H    4.659958   73.779526   56.498444
H   39.692181   46.765579   80.242401
H   81.201317   34.873466   61.948586
H    3.893534   69.362587    0.250553
H   46.487064   82.265312   52.995735
H   53.466358   31.010254   52.878563
H    0.279024   69.878281   27.622581
H   58.561794   86.956360    8.711228
H   74.806671    3.379288   29.990717
H   35.829765   70.962265   46.734844
H   97.630569   26.187008   27.353441
H   53.308304   32.670227   92.566681
H   32.825462   95.303734    8.432549
H   20.530764   41.379314   94.308434
H   70.732109   76.504112   74.944145
H   10.286972   42.700901   12.052282
