100
TIME:    3.285, STEP:  3285
H   95.171539   20.769981   96.138504
H    9.891663   82.852631   85.216843
H   36.220932   10.240294   84.779350
H   82.027985   97.307243   60.102543
H   65.747604   36.064739   76.635071
H   77.081917   97.649208    4.070078
H   80.802925   83.156685   47.344215
H   61.691772   72.795517    6.575525
H   72.876366   70.454010   93.307579
H   85.070992   63.551094   36.327400
H   94.692337   98.421844   23.321985
H   30.461388   88.350891   59.099037
H   34.303772   62.960312   98.627129
H   92.427315   94.950569    7.229237
H   20.458805   76.597977   92.864998
H   69.441635   24.411102   60.357765
H   59.946999   99.248856   72.434860
H   71.341393   34.951225   85.658386
H   96.432869   16.162188   36.428509
H    4.017311   36.055073   39.990685
H   69.340164   29.185226   68.079910
H   77.316498   48.444870   39.530167
H   41.884544   67.905525   38.363464
H   13.829453   76.080109   63.102131
H   12.094071   25.642273   60.800270
H   31.596048   29.727938   81.267784
H   78.810089    5.922606   65.153297
H   55.362408    9.772385   75.357567
H   82.599701   47.132675    1.889284
H   26.954300    9.536199   44.536346
H   45.341190   16.628096   49.480202
H   73.174141   61.747612   95.155174
H    1.747786   28.135662   93.735695
H   16.900143   72.672127   33.358337
H   99.114075   10.599381   24.762146
H   58.172405   42.539143    9.347756
H   94.873482   84.231430   67.310478
H   28.216789   98.830040   54.253826
H    6.410424    9.843298   25.971094
H   53.782566    4.652106   96.490944
H   10.745569   68.897919   19.738874
H   36.384087   59.292641   57.133118
H   39.536465   83.199112   38.752628
H   69.589676   67.828247    1.924206
H   71.705406    2.283495   37.217587
H   35.706608   25.573139   96.507088
H   67.398727    3.486625   56.996002
H   56.414852   29.205427   71.835121
H   61.050865   60.384789   13.433461
H   94.775566   80.740807   53.906284
H   43.293995   52.498123   88.053345
H   64.777496   58.916557   58.409008
H   77.019127   41.056274   12.081181
H    0.623203   53.611252   76.774750
H   79.236496   46.473389   28.287733
H   97.676498    9.079199   80.797653
H    4.507453   94.759193   68.418266
H   81.448479   66.659897   28.942371
H   49.357033   77.567780   59.292995
H   42.242203   80.284256   70.177376
H   66.920998   25.805042   58.270321
H   82.323540   97.365768   46.719604
H   97.078621   83.120415    8.208176
H   68.615654   59.664085   37.953518
H   62.711826   98.475990    1.486455
H   99.542580   78.965797   40.418640
H   24.007042   61.931026   25.662565
H   53.448387    5.409359   23.244596
H   20.625488   13.747169   54.204166
H   96.940491   13.368143   94.815857
H   17.718552   71.888298   22.742893
H    3.104402   42.502457   97.133728
H   92.802917   55.815311   77.521233
H   57.899212   41.498291    7.971331
H   20.555052   33.321400   50.423496
H    3.314693   18.109949   74.889954
H   65.212654   41.824844   49.146381
H   86.315598   35.922298   95.857269
H   19.041174   43.869648   54.334160
H   38.422829   30.045200   37.915451
H   75.162857   63.266491   76.325684
H   87.801453   65.681107   12.087690
H   25.640738   62.089569   42.779850
H   76.152222   93.263275   63.381798
H   92.376587   43.406406   29.308418
H   75.688721   29.717140   69.903549
H   86.552437   64.506660   80.184738
H    8.835081   42.289230   61.579636
H   23.856766   11.268967    1.324170
H   75.900909   74.122757   41.648064
H   58.458344   50.811382    2.834974
H   21.349318   42.555984   96.119270
H   96.029587   26.083120   73.038536
H   64.736488   12.491760   48.308762
H   99.793236   55.480137   91.573387
H   65.249115   66.010201   97.774208
H    1.854866   56.199963   48.266396
H   18.925001   44.207489    3.473566
H   52.223564   51.010639   69.884438
H   43.254345   94.336159   81.285461
