100
TIME:    8.824, STEP:  8824
H   20.590969   12.818687   91.067398
H   56.778763   83.023849   34.486164
H   31.447359    8.738101   19.759903
H   82.957687   69.101555   56.490356
H   16.128527   80.039764   26.450031
H   91.181641   91.648399   52.616737
H   90.504387   57.177841   80.501457
H   26.337296   51.989323   98.002754
H   36.717110   37.901123   44.648182
H   33.745338   43.084568   53.216011
H   79.468048   21.294624   89.777092
H   19.052979   65.992134   64.827065
H   81.072403   27.882591   48.202156
H   18.169821   77.877846   28.750378
H   87.782295   81.829659   26.554802
H   46.729767   39.949730    0.571367
H   14.533542   65.608421   76.671883
H   89.758743   65.463127   93.643631
H   82.702209   48.532162   28.244373
H   54.779636   18.426573   17.111506
H   40.648048   77.760529   17.746130
H    8.345819   55.797974   67.833176
H   67.929085   22.861490   79.884995
H   99.180695   42.388885   51.727757
H   13.987967   86.372849    1.706366
H    6.000671   65.971970   60.505238
H    1.175156   75.674881   75.050705
H   87.998230   68.314194   58.449059
H    3.039981   49.674129   40.056175
H   39.343742   72.445358   84.871552
H   63.337803   13.321220   11.252281
H   22.909901    8.715725   82.382210
H   91.907242   22.876339   92.732559
H   50.937393   65.055756    0.011204
H   61.350746   91.569405   61.913372
H   39.692402   76.565735   91.685310
H   26.135746   81.380623    3.762096
H   99.280998   97.467323   45.125763
H   72.609489   89.158287   89.201523
H   32.071602   86.110054   32.288200
H   32.193039   58.952904   50.234097
H   56.575256   76.206482   30.442146
H   87.226532   16.420452   38.839443
H   15.902607   60.758575   43.497883
H   91.239258   83.749443   11.204690
H   64.221825   31.215256   19.009787
H   10.679242    4.716860   10.169685
H   56.726192   86.254333   14.556292
H   22.965210    1.647416   92.480591
H   10.999681   65.040886   66.559807
H   42.895695   17.743279   46.446899
H   33.975964   44.937458   94.795174
H   91.902016   73.173279   90.388443
H   72.345520   63.237480   21.194729
H   38.215279   31.897757   75.394867
H    4.586040    3.251732   92.237000
H   55.654037   34.933846   95.223183
H   69.002625   43.569557   86.268456
H   86.207756   11.613885   34.066910
H   76.725227    6.029304   12.635033
H   16.325079   68.212769   26.407772
H   85.736900   45.809525   96.096123
H   73.122925    5.148736   28.382294
H   48.968670   89.831085   87.567429
H   82.563339   56.086552   17.309401
H   59.276619    3.606425   67.928108
H   79.602249   53.429150   93.084213
H   70.831680   22.191616   88.040833
H   96.687927   15.749962    6.805944
H    9.235854   91.851578   83.128052
H   41.826115   95.014351   56.304695
H   46.631950   58.608788    2.842137
H   31.650406   81.839226   35.502682
H   35.957897   90.949013   78.861732
H   87.532532   41.308094   70.343277
H   34.262489   73.109489    2.186741
H   68.190262   62.061840   47.238480
H   46.542439   73.746208    1.764862
H   84.656136   27.599850   16.132074
H   66.788109   28.334696   60.725731
H   83.559822   20.570688    7.381583
H    3.442579    1.697132   48.787712
H   76.012444   54.686680   70.296928
H   57.225288   67.248024   57.480396
H   22.675552   96.927109   92.365906
H   48.208797   33.173431   54.548584
H   56.489857   61.775475   44.305611
H   97.943230   98.968910    4.086709
H   38.808842    2.866539   56.021858
H   86.178757   46.234024   39.653389
H   85.137108   49.899960   19.808861
H   31.185541   59.128448    1.662248
H   51.088871   92.278923    1.378049
H    0.071213   48.514759   21.786844
H    4.027899   59.330395   18.852350
H   22.747849   47.281433   11.677979
H   62.194664   74.070061   29.712547
H   21.244951   23.072277    1.737909
H   88.358147   74.906364    5.934200
H   87.304062   52.194233   47.696659
