100
TIME:    0.441, STEP:   441
H   87.499672   81.579414   98.742264
H   89.002983   28.655033    5.818573
H   87.341431    5.631492   18.161804
H   81.550629   14.480730   15.990205
H   91.221054    8.105615   53.747688
H   21.177860    0.733676   22.419004
H   29.858124   91.115639   24.939547
H   85.224564   26.754215   67.703789
H   42.787376   43.893097   72.328667
H   62.788750   22.717930   24.958757
H   59.234283   83.987213   97.270393
H   39.009235   45.795647   61.538094
H   15.210732   35.026398   81.296837
H   33.246098    3.717563   90.799919
H   85.866264   30.631594   29.573469
H   83.792130   73.164864   96.433090
H   88.610817   11.161026   13.507064
H   10.568410   73.254776   84.257614
H   52.131371   96.852371   86.596451
H   80.711922   96.285675   46.273933
H   38.106979   12.313965   45.273140
H    4.633735   44.682007   81.705513
H   79.856041   91.035591   19.732525
H   78.067841   41.970860   74.323029
H   13.811094   51.199902   39.815079
H   44.636883   14.469245   47.838181
H   24.050474   24.144791    8.717253
H   95.331078   77.023575   81.351791
H   20.760406   89.103172   36.325317
H   17.903498   79.925003   18.446781
H   33.449436   61.589256   74.514854
H   93.602478   40.326828   58.438499
H    1.420584   36.216118   37.525719
H   96.735100   33.307587   53.172371
H   69.810081   25.584091   51.581375
H   10.898183   19.128538   19.126913
H   22.096985   88.385109   43.214306
H   45.762215   50.882664   53.560596
H   30.894119   71.093941   99.858307
H   21.656506   70.898979   72.731865
H    5.105053   71.311211   52.730648
H   91.986595   31.649950   23.518927
H   15.039639   66.144485   33.327286
H   51.198334   20.162180   23.850544
H   18.402340   14.492185   93.844666
H   72.319160   71.494438   85.047676
H   40.736622   49.531185   31.391546
H   56.262966   99.923798   95.864548
H   77.919853   95.926254   26.881907
H   35.138966   37.461697   52.819839
H   43.510975   27.068140   58.066715
H   26.564184   22.817104   45.111740
H   18.027063   24.565796   77.258186
H   66.475815    0.006440   51.276264
H    5.650944   97.164871    4.148228
H   94.118027   12.068474   77.614120
H   24.209518   76.822014   97.930107
H   93.221130   35.239876    2.195438
H   25.057808   57.402054   77.628265
H   29.917244   61.685699   51.066490
H   87.519028   58.060898   80.011536
H   83.259186   23.840591   75.401932
H    4.145079   77.080498    3.303631
H   73.322823   44.193413   15.166578
H   49.826996   25.621899   36.630531
H   74.254066   20.349689   72.261223
H   52.186577   63.606594   88.353317
H   49.902946   42.758835   87.284950
H   78.882195   18.098869   32.573734
H   39.319901   70.325829    0.803408
H    8.028078   65.398994   56.858311
H   37.604641   36.889671   88.909584
H   78.237579   96.493996   50.441448
H   20.484200   21.472013   76.998665
H   83.433884   29.271189   34.829151
H   36.084415   35.836395   66.254684
H    6.994534   88.321648   98.837219
H   52.699310   21.884476   38.795284
H   82.691078   52.210712   22.605762
H   77.898026   84.936882   82.928680
H   19.511845   33.844006    6.346463
H   74.412346   47.107620   49.903557
H   45.699055   14.618165   71.902954
H   80.506866   49.898533   23.149666
H   30.857119   21.298607    5.002501
H   41.143192   25.252506   72.407600
H   96.608101   71.288628   44.571728
H   63.054398   69.986504   91.155266
H   64.834908   69.618019   24.592609
H   27.345814   91.140289   39.977413
H   42.070103   97.244888   42.774853
H   10.916359   28.673151   41.926514
H   13.579411   40.844566   53.031883
H   89.851875   39.982643   56.551998
H   48.967548   10.226902   26.219978
H   30.346405   78.316704   44.670799
H   27.597616   92.988625   11.826635
H    8.484361   19.992523   48.979576
H   87.703941   38.751270    8.111935
H   66.629074   67.377205   55.211533
