100
TIME:    5.594, STEP:  5594
H   39.022621    9.023707   94.024551
H   45.982002    7.993474   30.824707
H   75.915680   76.358917   57.681416
H   82.415543    2.176613   33.536415
H   45.066101   21.141191   14.029230
H   41.274471   95.147697   32.738644
H   59.787182   39.071651   27.911165
H   80.208923   72.553329   94.570915
H   16.116737   48.453140   47.965088
H   21.970907   96.704918   26.744551
H   79.914780   91.329453    0.907483
H   42.334404    4.089050   94.742485
H   87.102219   23.310463   69.173759
H   78.099586   87.833595   82.946007
H   48.542763   70.348892   81.874359
H   76.600983   22.457474   68.690155
H   74.270882   51.969440   82.632233
H   20.691717   22.633553    5.609301
H   32.396801   13.027339   58.074192
H   41.804070   87.018593   97.198189
H   32.320824   99.316223    5.413948
H   98.682571   51.510101   42.897491
H   11.055362   49.126579   72.299240
H   99.294365    3.748751   91.613937
H   29.509941   42.528038   77.852821
H   21.045713   61.288208   64.382172
H   79.702454    9.940266   10.959146
H   60.535389   17.548698   51.682259
H   32.807396   56.623325   92.741425
H   15.492361   52.388298   28.095173
H   36.214195   23.680618   66.799461
H   18.965641   97.957703   81.399467
H   64.392326   59.198555    1.748653
H   14.461080   61.066002   36.084038
H   41.720261   36.056686   65.362305
H   58.914371   23.574913    1.839142
H   16.336735   99.670044   49.250591
H   32.782078   56.583126   17.195164
H    8.946605   59.532951    2.212489
H   36.301311   88.491692   78.159264
H   52.941177   48.125397   74.137917
H   28.863506   62.921265   65.605644
H   59.425236   97.045502    5.535071
H   22.148296    6.538024   27.687925
H   71.416847   11.182467   34.804546
H    5.915611   69.613815    5.887419
H   85.437790   29.059258   79.162834
H   56.538166   52.986359   14.702903
H   28.548447   69.153870   21.326569
H   43.200787   15.875608   92.413010
H   43.117832   29.579233   12.396794
H   76.990639   44.658230    6.825281
H   24.908115   54.444641   77.978966
H   47.145958   15.930055   78.664513
H   95.391930   48.836796   47.928211
H    0.563038    6.649378    2.193848
H   50.886215   28.134453   88.023323
H    9.515038   48.603584   69.466660
H   31.463598   75.129204   82.029106
H   89.872818   57.762577    4.503914
H   12.574173   18.425457   78.243217
H    0.375885   75.873917   42.244102
H   53.837902   25.558767   49.873077
H   27.169136   72.236023   75.264160
H   54.359474   14.060265   16.513910
H   57.697685   64.178764   76.944267
H   38.751801   41.761166   37.141251
H   93.949776   37.464695   33.628147
H   35.706585   47.837166    9.385829
H   43.718781   29.503677   89.953766
H   44.398460   14.785000   95.043404
H   12.716606   65.870972   66.189529
H   42.252472   41.603470   18.316963
H    7.065350   95.375084   70.777122
H   31.880922   36.615643   25.461479
H   57.906670   66.097099   19.524588
H   74.854485   41.695492   89.980904
H   94.796616   84.942741   23.375010
H   29.765690   37.087383   80.095757
H   25.188740    4.287246   38.993073
H   20.337717   87.154160   14.329509
H   61.055824   80.748749   19.002718
H   71.708763    0.670775   62.688908
H   35.008331   90.849533   52.490864
H   79.947533   98.976021    5.476870
H   22.544300   14.530265   30.247681
H   40.765343   96.623405   90.286957
H   45.995903   57.436932   37.576660
H   71.774521   82.707512   82.439095
H   71.754608   79.123947   24.189917
H   52.952202   75.490601   51.596844
H   92.198250   16.201715   40.114357
H   44.039581   95.366646   51.597187
H   87.906319   52.554638    3.993999
H   59.874763   48.653774   44.629612
H   55.963058   74.830841   78.511459
H   18.577024   88.709023   15.473325
H   27.398428   63.867249   66.515846
H   42.227722   60.963833   76.481361
H   86.675995   35.083622   58.853764
