100
TIME:    2.210, STEP:  2210
H   67.869049   19.352951   97.122696
H   39.795113   24.567045   17.406027
H   17.742727   32.899734   97.393410
H   81.847549   41.598839   19.025154
H   75.376282   49.898762    5.783144
H   93.747566   98.813835   97.609093
H   37.144390   10.566650   63.277733
H   46.184654   79.794739    5.278475
H   99.301918   73.810867   60.976704
H   14.447100   48.115685   94.229881
H   94.686218   55.166615   26.871420
H   71.492493   34.466385   35.618324
H    2.684932   27.999474    5.473341
H   45.655083   98.264015   25.421925
H    7.381403   72.621185   44.540108
H   12.665112   18.434578   49.592545
H   46.386749   28.147835   74.568298
H   48.371338   87.228218   22.928978
H   79.685204   71.067032   79.793427
H   32.977158   58.880123   66.799721
H   33.132095   36.205082   97.261200
H   74.255203   47.017792   31.076340
H   56.237343   76.648430   69.119461
H   13.708611   63.187199   42.940674
H   50.541252   10.901360   52.867645
H   36.525547   61.755474   82.028450
H   71.508827   50.611141   43.821384
H   46.068230   59.595043   39.822659
H   59.225143   49.600288   52.704063
H   85.734993   36.142685   59.077145
H    3.037231   20.228041   34.534519
H    5.297988   91.453178   94.673317
H   26.026695    6.788524   96.891205
H   71.478874   71.189468   78.647568
H   25.837868   91.860962   59.300659
H   64.705460   58.092251   13.042672
H   91.766876   23.601519   82.604736
H   72.646446   18.504803   78.394569
H   51.789474   33.263184   30.146444
H   55.035496    5.290006   11.911974
H   84.212029   32.014240   94.411179
H   32.998993   11.042844    6.629380
H   30.276861   76.752655   61.102867
H   38.235268   49.811073   96.816330
H   64.953362   44.694607   45.227028
H   49.575512    5.069141   92.143837
H   58.995411   45.025421   46.670189
H   56.357441   18.137369    5.320193
H   29.630537   49.416531   56.317970
H   72.237572   64.386818   29.094349
H   43.376011   56.282402   76.718735
H   12.534842   58.668415   28.979496
H   54.723770   34.823059   74.517265
H   25.515057   71.151131   29.336931
H   64.823303   52.245983   19.158888
H   96.331436   10.209345   17.393188
H   36.355907   25.778633   66.176826
H   61.495697   68.180344   56.631424
H   64.573647   32.147320   41.820518
H   13.182280   97.654999    0.752893
H   99.108719   75.795723   42.086369
H   20.475178    7.373217   95.358002
H   24.135342   56.448006   81.943527
H   94.795837   53.816345   67.142128
H   20.040054   84.335205    1.373803
H   65.581459   32.407295   76.857796
H   10.255907   24.768782   73.760941
H   27.706108   43.929871   71.853378
H   67.049980   90.989830   21.624672
H   75.157043   59.301117   97.079498
H   51.855324   45.031532   35.641064
H   91.742737   78.179413   18.427145
H   62.895569    8.991833    5.080051
H   81.554802    9.525811   71.861687
H   68.723045   31.788267   68.930893
H   77.905266   49.213562   47.224155
H   67.609528   34.998650   30.134672
H   35.810146    6.213706   36.490292
H   67.488434   47.027264   42.335220
H   91.142708   88.592834   30.527626
H   54.130108   52.145123   12.075504
H    7.141369   58.660538    1.978209
H   57.629681   44.144470   40.391392
H    2.197358    1.274144   61.570770
H   44.721191   10.646641   33.517639
H    0.424871   90.231514   95.252235
H   14.755636   42.667923   28.924742
H   91.531799   28.356445   72.764839
H    1.545329   71.122978   10.119093
H   70.945511   18.349182    3.221066
H   14.464966   92.765488   80.132889
H   41.806416   61.716862   75.631676
H   27.081444   93.852524   89.886551
H   60.833591   47.286068   75.826790
H   18.381702   51.771965   66.870171
H   76.458511    8.461254   53.299622
H   87.183182   94.508034   10.090288
H   14.979503   35.054504   20.674927
H    3.434212   46.376736   59.928246
H   76.489792   21.937328   84.830963
