100
TIME:    4.082, STEP:  4082
H   41.272858   47.681091   95.408829
H   87.741035   26.061007   35.488739
H   49.920586   67.579460   75.427345
H   82.161758   64.471855   16.414320
H   58.608948   99.947807   55.024521
H   64.726082   96.785759   83.000389
H   39.032650   36.974072    9.670724
H   99.049141   41.746441   33.398296
H   53.284584   93.825638   43.139874
H   63.290184   74.994835   67.538574
H   20.557327   30.490467   46.550312
H    0.040049   28.300013    2.368307
H   83.586319   14.743454   19.414139
H   52.964043   92.493996   67.883102
H   30.154366    5.406929   54.555546
H   37.396729   54.702446   94.199158
H   95.856880   51.962345   44.988914
H   88.367149   96.192833   58.026699
H    8.846878   49.599556   78.417328
H   82.541679   19.130373   94.254204
H   22.045044   49.841930   46.449974
H   53.725662   49.502899   71.658279
H   31.243446   61.423576   15.558948
H   39.779488   85.638855    3.907481
H   83.588776   62.437607   66.686317
H   27.938551    5.980617    6.565014
H   10.083036   72.794632   80.962929
H   88.114594   46.973663    1.699137
H   99.929489   19.442997   64.213844
H   57.515030   89.809929    7.896182
H   76.708687   88.096413   86.424095
H   23.497023   39.729660   21.372841
H   57.888966   69.823814   65.535751
H   50.576019   99.631897   99.783867
H   79.303391   50.352257   73.292801
H   27.478209    5.147651    6.596661
H   71.315231   55.044418   30.110830
H   95.276436   84.248695   10.497620
H   72.771423   92.478752   48.735924
H   78.714226   30.039837   59.198566
H   56.275803   96.248581   38.515850
H   64.754227   95.059692   94.577621
H   46.401493   87.978485   96.321342
H   18.695620   81.181305   79.850708
H    2.572783   70.834839    5.418148
H   25.424267   40.774708   99.741982
H   73.625290   46.831261   64.650993
H   56.457417   37.413239   21.148918
H   84.351059   94.378998   81.642059
H   11.489299   92.865578   98.164894
H   43.233189   75.552620   96.456772
H    3.510820   84.960358    6.085237
H   93.546272   45.677551   65.794624
H   82.162621   40.604790   11.944079
H   15.779074   16.324709   35.065968
H   98.673721    8.240072   53.665894
H   55.031734   71.762260   44.219673
H   22.101555   91.392845    8.411695
H   12.215971   11.242971   98.105415
H   89.649200   41.544613   47.508797
H   17.196188   88.740379   96.131630
H   54.036461   89.947403   10.655629
H   51.188023   28.735100   53.555473
H   23.342684   63.999573   16.312565
H   94.343498   34.821194   75.707848
H   50.581367   39.344429   87.543503
H   60.062088   89.487976   64.141281
H   98.393944   50.991470   61.345806
H   60.350227   56.479843    4.215687
H   13.088083   53.456406   93.137604
H   92.409813   17.660458   13.181107
H   37.387642   16.051727   55.487568
H   40.837875   16.394604   57.088264
H   40.350521   91.062370   60.615379
H   58.979443   34.458477   10.841063
H   22.157709   69.191856   21.263058
H   37.573997   72.746628   63.241276
H   23.760113   83.808907   39.873901
H   57.257919   41.528606   63.230118
H   99.336090   86.639549   69.253288
H   90.753586   71.511826   23.960272
H   47.602798   70.886124   45.443481
H   76.065926   75.393982   18.690319
H   30.985601   61.464668   90.589554
H   53.570023   93.552589   52.048264
H   57.347340   58.995125   25.249832
H   39.782280    6.558281   18.189177
H   21.662165   78.479530   53.291740
H   40.397568   66.892967   94.805305
H    5.434463   41.331810   70.137115
H   91.074829   93.848198   19.666178
H   80.323090    2.489027   11.307228
H   47.117561   49.998230   34.671856
H   41.768917   60.837601    2.047426
H   86.014534   84.088921    9.887412
H   31.078079   34.536873   56.608360
H   38.592072    1.938376    2.429113
H   21.849783   50.993469   90.717628
H   14.256126   54.446194    3.125763
H   92.760262   73.880928    4.507606
