100
TIME:    6.926, STEP:  6926
H   48.944901   86.873573   92.805069
H    9.197433   80.174110   14.811324
H   98.821625   72.188240   42.041553
H   82.639114   47.299713   60.526615
H   33.135498   27.906782   77.913269
H   20.614407   93.704643   64.652115
H   89.978622   29.014233   32.075375
H   75.516350   87.789062   72.272163
H   83.373573   20.386856   64.121315
H   85.585854   15.832071   78.898659
H   56.015381   44.925098   72.601463
H   91.493881   70.855255   99.929359
H    2.104294   42.759487   36.819267
H   12.147293   83.728004   84.311714
H   64.729195   51.368370   17.831829
H   23.044529    5.955690   58.122559
H   67.159370   40.071484    3.889457
H   49.176792   57.819855   59.433174
H   53.138165   68.909225   28.250568
H    5.920799   58.728497   87.886925
H   53.278061   66.712982   69.257072
H   26.382706   53.278351   29.465378
H   93.270119   38.293510   34.190414
H   75.533257   19.683321   92.688339
H   81.871162   36.893829   87.689980
H   14.950588   21.922119   39.115471
H   64.843269   54.572807   37.390942
H   48.145584   79.721977   95.708420
H   61.770103   77.473000   29.775663
H   66.566727   19.421623   33.985252
H   88.637001   43.123268   61.415932
H    3.069222   61.150448   58.089546
H   58.216175   61.743156   21.745733
H   70.741707   38.996078   79.970276
H    8.586803   35.274635   46.435585
H   74.703087   27.903091   97.651314
H   44.092361   50.890747   54.207005
H   77.727272   32.203640   11.190772
H   52.725071   30.509531   73.131546
H   10.842010   63.795361   82.958115
H   61.908493   93.832130    5.518882
H   16.528564   68.763458   33.544979
H   70.892426    5.034954    1.747078
H   37.094875   28.895285   57.922462
H   55.875832   58.625477   48.786930
H   88.722984   95.019699   11.298872
H   95.844040    1.496804   91.947075
H   56.610348   66.705536   97.119583
H   67.481331   58.837673   68.195023
H   71.152100   36.151585   99.265511
H   43.026020    0.982532   26.436737
H   41.731014   21.057579   19.387672
H   52.539555   62.168030    0.616843
H   16.303215   94.197342   37.440811
H   89.336166   65.567436   59.259235
H    2.222084    5.248243   56.849411
H   35.330021   89.699440   14.707806
H   10.331685   22.812380   35.158554
H   36.515709   31.413265   79.775185
H    1.975225   60.144634   66.618675
H   96.597588   56.479156   74.389847
H   53.100655   63.475845   81.974762
H   44.266926   34.665688   58.533844
H   18.635284   79.491943   39.099506
H    7.226757    7.675754   40.557545
H   75.872375   97.961479   55.703018
H   31.883036   87.812042    1.448723
H    1.939438   13.642509   97.305450
H    2.091670   52.128143   25.845760
H   70.702354   96.498955   87.148956
H    2.099838   24.156723   79.068184
H    2.910442   21.651691   63.722847
H   55.403214   75.720215   84.166077
H   77.739159   11.073318   91.634644
H   96.101921   38.516003   26.436184
H   89.391609   51.465206   29.897852
H   95.811127   26.337643   13.575068
H   57.376400   97.845680   96.935738
H   93.640800   33.174877   94.953117
H   59.867355   31.728168   24.239983
H   46.404152    0.934526   93.940308
H   61.017189   89.386887    7.575609
H   55.961304   22.945227   89.540329
H   26.647739    4.831678   30.834064
H   15.090681   15.659139   76.354393
H   91.887497   63.460182   22.745834
H   29.726671   99.775841   53.801796
H   67.418144   50.848965   23.766022
H   99.416122    8.544008   71.545052
H   53.987919   24.321178   71.803040
H    7.463202   47.415192   79.726242
H   90.752762   16.380875   65.490349
H   29.423313   35.333950   54.602791
H   16.638088   33.365196   93.808594
H   36.846870   29.340721   75.238617
H   65.980789   22.231443    9.712093
H   12.849257   65.148651   38.868988
H   24.908541   29.158226   39.842094
H   78.774467   66.710350   64.913231
H   69.410484    0.903258   30.536831
