100
TIME:    7.114, STEP:  7114
H   36.231033   69.632973   92.632950
H    4.005752   90.360695   26.665314
H    2.053795   85.713936   39.834126
H   82.670670   39.554352   50.220982
H   31.451365   42.975811   72.815674
H   17.698421   93.500969   83.269669
H   80.124802   41.709454   46.777218
H   60.739922    4.054036   55.010735
H   78.752174    2.311214   52.286701
H   80.450966   18.531496   86.259621
H   38.528076   52.489735   54.492416
H   84.319382   80.278778   86.547096
H   90.113472   31.383640   18.137081
H    2.838886   83.148537   98.617683
H   67.012642   34.575279    8.791271
H   15.484913   89.512451   42.517090
H   52.041573   52.505657   21.003839
H   53.197208   48.671722   52.917030
H   56.065624   76.795151   38.154591
H    0.856193   54.736767    0.686844
H   42.121872   47.996666   64.153740
H   44.406448   53.527924   13.455429
H   90.760048   36.764519   28.811266
H   58.065544   21.932344   78.726608
H   75.147041   21.984009   89.078407
H   14.064175   16.380600   21.423487
H   48.631153   46.757164   41.121624
H   32.283371   88.497185    1.922253
H   65.857933   94.530006   20.889296
H   73.775650   14.768574   48.930931
H   96.035255   59.980904   46.541969
H   14.939421   55.956753   40.685432
H   71.458504   47.987968   38.682259
H   78.685005   21.766953   72.049927
H    3.907830   21.040382   57.874336
H   91.045799   42.628082   97.060371
H   62.123276   44.005981   69.020721
H   69.956093   28.762691   24.456856
H   44.788944   26.413813   54.912735
H   93.134285   46.194744   97.748886
H   49.059799    0.283674    9.947723
H    0.684666   69.500702   43.142056
H   72.510345    6.162693   15.326202
H   25.091000   32.050804   76.304314
H   39.568977   51.208576   64.874336
H   86.296104   98.605515   12.062651
H   97.312790   11.721303   93.751457
H   56.621822   68.641876    8.751730
H   72.977669   43.268063   60.695732
H   75.099365   39.013065   86.121346
H   43.013111   82.832535   28.418259
H   50.869106    3.611915    7.046976
H   56.439487   63.258118   89.698708
H   11.950035   91.130753   45.736954
H   74.367538   82.042107   60.858509
H    2.456238    5.050486   50.449448
H   47.247837   84.274818   32.588142
H   96.332932    5.057603   30.316019
H   51.342339   39.357998   65.342995
H   89.568474   74.594421   61.271507
H    8.456854   47.736938   59.731453
H   46.428169   61.725967   73.469208
H   57.030994   21.836506   45.642120
H   31.544937   80.516052   33.994740
H   14.688857   92.660767   58.064930
H   64.323181   88.615410   66.819046
H   16.798944   94.312408   10.525752
H   88.952995   24.394934    6.292937
H   11.461859   38.619659   14.054225
H   74.511925    5.954603   86.753082
H   96.129997   11.365272   76.813423
H   87.439613   15.395843   77.500984
H   43.145462   66.422913   79.346741
H   73.599693   99.174927   80.464111
H    5.160542   38.790165   40.689884
H   93.835152   63.514980   17.247812
H   12.885697   10.065212   16.909159
H   66.208984   85.553505    7.318238
H    2.656634   32.622662   97.050102
H   50.647507   21.486362    8.043748
H   50.083199    2.879920    5.176630
H   75.124916   90.606064   91.847206
H   67.852837   26.089270    7.444049
H   39.581356   20.919548   13.663696
H    5.936811    3.898741   58.129845
H   87.561569   70.365143   35.801071
H   42.282764   86.106712   62.766335
H   70.441704   35.804317   21.816772
H    3.317946   98.076622   70.007454
H   37.365513   16.585857   78.524292
H   15.156940   57.565918   83.696457
H    4.662859   30.519745   69.073296
H   41.474522   40.975155   69.141121
H   34.807304   44.770958    6.485075
H   33.596687   12.500298   79.558807
H   81.508804   14.808030    0.001354
H   97.926842   75.937653   28.056774
H   24.545656   38.460049   36.068382
H   69.818535   67.522179   49.165844
H   81.088768   96.078354   12.425666
