100
TIME:    3.052, STEP:  3052
H   10.928202   42.137321   96.351822
H   16.373390   70.220657   70.519241
H   32.215889   93.477585   87.513374
H   81.988876    6.907183   72.873718
H   67.834564   17.388760   82.952835
H   80.694099   97.901634   80.995964
H   93.015373   67.424492   29.123314
H   80.005112   52.637981   27.969334
H   78.603951   92.855942    7.973904
H   91.438530   60.205559   27.202730
H   16.365417   89.046524   45.765148
H   39.354965   76.671738   75.684502
H   49.124031   77.057068   21.785252
H    3.964110   95.668739   89.498268
H   17.624344   97.410690    4.064620
H   78.809845   44.790070   79.698586
H   78.683418   83.836639   51.223949
H   66.363976   46.281960   93.736023
H   92.802910    6.386933   24.153841
H   10.294189   41.002270   24.126947
H   83.166718   52.381767   74.404785
H   54.978561   48.135559   59.372284
H   44.995430   69.800499   45.029648
H   35.477661   73.285645   80.405861
H   20.427010   44.120934   59.079605
H   32.664753   36.669949    3.107798
H   98.901077   15.608523   60.530079
H   75.022423   98.896767   67.656792
H   77.533401   25.993128   12.902811
H   18.020725   15.303336   26.013531
H   36.170300   95.734650   67.914421
H   58.462318   68.185631   16.725105
H   85.336395   45.183113   72.745216
H    7.055037   94.025246   43.174515
H    4.906159   28.212463   10.574730
H   37.914181   24.235067   10.148683
H   72.524879   92.764145   48.950924
H   37.846313    3.094002   37.812351
H   16.245758   14.919374   48.550552
H   75.728592   26.464979   78.159828
H   26.668859   60.902744   14.249637
H   57.324791   48.834732   46.186356
H   37.529499   81.801880   21.923092
H   84.468597   63.924492   79.141930
H   91.917274   11.476141   17.278818
H   38.712612   21.129017   95.561378
H   65.578415   90.815338   54.757942
H   56.402409   26.806490   57.418388
H   54.240692   79.682610   22.728022
H   89.890587   77.196175   70.202667
H   43.311771   74.992493   85.596634
H   53.453876   80.536743   73.704552
H   72.187477   39.705261   25.613533
H    6.018368   57.413643   66.492828
H   97.788040   26.053535   26.306543
H   97.384964    9.324446   88.729523
H   89.735603    1.482335   46.258095
H   98.798332   88.663635   34.944168
H   30.981476   67.723160   77.180168
H   57.617088   62.376057   76.804451
H   52.223396   36.639812   76.437332
H   90.593163   99.534500   57.262840
H   81.261101   99.019707   24.185684
H   52.615547   58.396622   44.280170
H   53.462719   17.085526   79.788414
H   13.855879   90.548958   26.642208
H   42.701180   53.876499   14.412715
H   69.543221   92.083801   12.105849
H    9.012375   30.489067   68.817635
H   92.219055    1.648666   95.306488
H   25.118015   87.741371   25.538246
H   22.316095   50.235229   80.075409
H    7.995085   67.340324   83.494133
H   63.027790   56.243889   21.819115
H    9.321464   32.988979   32.760777
H   97.806664    3.176738   90.568817
H   44.056957   62.020714   45.025791
H   75.368835   51.158527   82.990646
H    7.868330   44.554043   51.733459
H   49.849556   42.735699   57.988663
H   70.604965   60.855999   62.399586
H   70.320053   64.159439   31.571611
H   10.898849   58.200073   20.587681
H   60.121815   73.325165   84.663757
H    3.721725   57.981350   51.895226
H   81.050110   21.158649   53.723385
H   70.990898   81.447655   69.074432
H    5.085131   60.943878   64.002571
H   19.020672   24.241522    3.230456
H   96.500305   83.707840   33.319778
H   48.923035   38.230961   97.914383
H    4.108483   25.033701   91.678703
H   81.093781   19.091627   55.020287
H   42.215511   98.358574   32.599678
H    3.822050   76.350464   86.219109
H   46.004288   75.211311    9.809250
H   20.348965   42.828487   61.666313
H   18.069952   42.223633    7.201740
H   63.323204   50.006268   89.399467
H   28.782503    0.316081    3.730273
