100
TIME:    9.133, STEP:  9133
H   99.694977   84.482094   90.784500
H   48.244675   99.766693   53.970760
H   36.758770   30.967987   16.132915
H   83.009552   56.371147   39.551842
H   13.359663    4.807434   18.072716
H   86.391235   91.313637   83.217743
H   74.308479   78.042336    4.665676
H    2.050507   78.722122   69.632805
H   29.121300    8.191333   25.197004
H   25.304613   47.521351   65.314613
H   50.725616   33.726974   60.011513
H    7.258492   81.480797   42.831749
H   61.368561    9.180464   17.495384
H    2.870429   76.925423   52.266270
H   91.535408   54.228249   11.695587
H   34.305832   12.923478   74.921936
H   89.685402   86.047798    4.801374
H   96.369125   50.427101   82.931229
H   87.516190   61.495960   44.522793
H   46.455364   11.864519   38.149681
H   22.311546   46.998787    9.359163
H   37.969952   56.208176   41.518951
H   63.803490   20.349592   71.044434
H   70.471268   46.085419   28.777826
H    2.936691   61.868965    3.987368
H    4.543158   56.862656   31.425711
H   74.530830   62.831097   81.180161
H   61.924660   82.737274   68.662956
H    9.759200   77.709312   25.449741
H   51.192451   64.797684    9.436150
H   75.497826   41.029453   86.805206
H   42.420429    0.178957   53.776512
H   13.672632    0.269170   20.569723
H   63.993134   36.737671   86.993187
H   53.660637   68.173744   80.712204
H   66.553558    0.767693   90.714027
H   55.771896   70.064705   28.109884
H   86.508156   91.814079   66.930443
H   59.567089   82.425316   59.256775
H    2.967304   57.183182   56.600922
H   11.075876   69.555740   57.514004
H   30.534500   77.418228   46.216183
H   89.885773   18.274612   61.157734
H   96.173378   65.946510   73.709785
H   64.434677   71.561256   37.647755
H   60.235191   37.108807   20.265146
H   13.095073   21.522177   13.137167
H   56.745052   89.436935   33.675434
H   31.996727   76.054726   80.155670
H   17.485571   69.746422   44.953754
H   42.874477   87.910988   49.704941
H   48.993130   16.264042   74.511391
H   98.309654   74.964966   72.443283
H   65.188202   58.194824   34.829475
H   13.611706   58.978157   78.021103
H    4.970900    2.926694   81.717911
H   75.243713   26.017845   24.611868
H   45.993591   14.387922   78.309593
H   10.578976   24.670805   10.344637
H   56.333889   29.780918    3.846336
H   35.818157   53.843220    2.316613
H   74.769890   42.933395   82.116249
H   94.099808   84.063255    7.193237
H   70.187683   91.514328   79.179504
H   94.826965   31.406063   46.085438
H   40.294167   88.245201   86.198601
H   54.810959   64.110931    8.002876
H   49.487030   39.863960    2.812820
H   12.088514   93.547211   87.426788
H   15.511474    7.372400   82.472672
H   32.011913   73.990318   52.598732
H   21.187136   48.349022   25.491371
H   11.503225   66.553307   27.579182
H   29.156559   71.391335   60.501656
H    2.417496   41.763088   93.771942
H   41.568329   92.912346   81.393906
H   96.253738   35.316196   52.719627
H   61.057461   53.542580   18.830788
H   99.475273   26.692219   19.581072
H   51.634209   11.501247   34.105034
H   89.609123   23.767435   25.850380
H   26.629341    3.703055   22.937498
H   95.555977   59.854282   99.723030
H   78.484322   93.689552   29.258968
H    7.630096   77.595749   62.411728
H   41.096272   44.524712   76.006393
H   77.127266   39.308662   59.039879
H    2.912573   74.243629    0.883008
H   45.221195   85.661751   53.494637
H   58.859798   33.520119   50.698196
H   97.782646   66.584229   26.334373
H   54.048412   82.368515    7.549119
H   70.896439    1.548923   25.273493
H   29.934549   67.261459   42.621700
H   98.685150   31.651188   25.951910
H   48.269958   35.079102   95.717392
H   37.667412   91.803047   11.940798
H   20.648508   38.361240   95.533348
H   73.638023   76.240700   80.053230
H    6.498091   44.266018   17.928722
