100
TIME:    8.561, STEP:  8561
H   38.376213   36.936455   91.308182
H   64.042404   68.773468   17.903042
H   26.926645   89.816956   22.846951
H   82.913544   79.936821   70.906319
H   18.485197   58.959156   33.580460
H   95.258911   91.933327   26.570171
H    4.288864   39.418037   59.934513
H   47.008575   29.237268   22.150856
H   43.182152   63.187424   61.204067
H   40.928719   39.308277   42.918495
H    3.931656   10.712934   15.111010
H   29.091652   52.809231   83.547997
H   97.842987   43.800400   74.338013
H   31.191202   78.688484    8.735233
H   84.587898    5.322098   39.201965
H   57.304184   62.952599   22.403152
H   35.682411   48.213619   52.729958
H   84.134399   78.260780    2.760901
H   78.604874   37.498249   14.389277
H   61.864697   24.011751   99.205330
H   56.254845    3.942029   24.884363
H   83.131752   55.448837   90.230072
H   71.440514   24.999449   87.409485
H   23.617220   39.242645   71.260590
H   23.393688    7.229431   99.764870
H    7.241209   73.725204   85.254074
H   23.853983   86.606461   69.833725
H   10.189766   56.038242   49.754761
H   97.321175   25.812727   52.488640
H   29.259190   78.954544   63.963501
H   52.986111   89.737236   32.060005
H    6.304121   15.981874    6.729391
H   73.382950   42.118492   69.039444
H   39.825226   89.158203   11.090410
H   67.896049   11.482140   45.911289
H   16.830656   55.965904   92.512001
H    0.910716   91.011971   83.038719
H   10.151009    2.279756   26.567360
H   83.709618   94.888939   14.687916
H   56.842224   10.730840   11.595838
H   50.167542   49.929535   44.037930
H   78.739395   75.175125   17.015446
H   84.963165   14.842684   19.843616
H   32.695263   56.342201   17.784191
H   14.052807   94.123207   88.698784
H   67.616875   26.199932   17.941309
H    8.623050   90.413948    7.644000
H   56.710140   83.545517   98.283745
H   15.278191   23.428368    2.971129
H    5.479214   61.037334   84.947655
H   42.913754   43.134483   43.673874
H   21.193514   69.342453   12.059808
H   86.448265   71.648315    5.662523
H   78.437347   67.527802    9.589957
H   59.155434    8.849586   73.159592
H    4.258474    3.528382    1.190149
H   38.981773   42.522545   70.209770
H   88.586365   68.406395   93.042503
H   65.464241    0.500547   54.258629
H   94.081718   85.814972   20.115379
H   99.734573   80.444580   46.912510
H   95.071281   48.257492    7.995829
H   55.267834   23.095846   46.416992
H   30.907948   88.398422   94.706665
H   72.125366   77.091675   92.817230
H   75.433205   16.680504   52.377491
H    0.702954   44.337559   80.386887
H   88.998810    7.149673   75.467911
H   83.581268   34.647469   23.301353
H    3.894279   78.640579   83.685867
H   50.179302   12.909593   59.458961
H   68.288834   67.341209   83.563583
H   48.798218   94.849571   42.246632
H   41.746738    7.594630   94.488594
H   74.863297   40.920834   50.402378
H   28.044252   56.253708   19.883017
H   44.304520   84.824097   42.573296
H   34.188229   90.942177   87.237793
H   72.043083   28.372364   13.196999
H   79.686089   42.661583   83.383476
H   78.411064   17.849833   91.662216
H   83.706558   99.989838   70.789940
H   59.377747   50.288364   45.249912
H   39.132401   44.742775   81.502037
H   35.481232   13.379410   17.860489
H   54.262501   23.512867   36.285141
H   38.924686   80.897713   31.764793
H   93.713463   20.014076    6.813665
H   33.351078   17.509638   58.172859
H    9.431027   57.055244   30.252607
H   74.374077   35.699741   14.254783
H   11.726206   39.348068   96.650551
H   34.230000   84.389244   81.039856
H   74.652481   32.558826    4.053791
H    8.575481   82.887466   12.809418
H    1.025065   57.667236   25.262352
H   83.070610   58.976936   44.837929
H   21.752604   10.058923    7.018095
H    0.886905   73.770668   27.963902
H   70.966888   58.942196   73.032410
