100
TIME:    4.084, STEP:  4084
H   41.137604   47.497681   95.406998
H   87.685799   26.169390   35.614853
H   49.954964   67.723351   75.403877
H   82.162094   64.389458   16.304693
H   58.591034    0.108116   54.970291
H   64.695076   96.783592   83.198448
H   38.927837   37.109127    9.827127
H   98.891945   41.919460   33.214657
H   53.235420   93.633347   43.013973
H   63.235527   75.023552   67.616882
H   20.371292   30.570942   46.357670
H   99.963707   28.400263    2.225949
H   83.458694   14.622505   19.215408
H   52.865013   92.487831   68.035294
H   30.178696    5.228284   54.459400
H   37.316315   54.527519   94.033142
H   95.696053   52.094624   45.170982
H   88.409874   96.095573   57.957348
H    8.878029   49.683464   78.522705
H   82.487785   19.087900   94.390373
H   21.926361   49.642818   46.395699
H   53.917404   49.505554   71.487961
H   31.216743   61.407310   15.501723
H   39.593666   85.662842    3.758940
H   83.517242   62.278992   66.701088
H   27.929354    5.920985    6.377557
H    9.910574   72.711502   81.002602
H   87.945831   47.067017    1.765249
H   99.972977   19.624447   64.119301
H   57.591721   89.760429    8.055172
H   76.787392   88.275764   86.265862
H   23.623304   39.674408   21.187691
H   58.029850   69.677483   65.715927
H   50.660522   99.448608   99.699608
H   79.253677   50.201073   73.414597
H   27.652143    5.304805    6.589755
H   71.507065   54.971176   30.268423
H   95.193764   84.212105   10.638752
H   72.687012   92.435173   48.542107
H   78.525841   29.852604   59.355930
H   56.139114   96.317215   38.562969
H   64.574478   95.149445   94.671585
H   46.418720   87.990479   96.465813
H   18.567911   81.214813   80.046265
H    2.399298   70.755920    5.589298
H   25.398464   40.812855   99.750099
H   73.640915   46.940025   64.670189
H   56.457523   37.433838   21.272667
H   84.409531   94.213348   81.562286
H   11.531245   92.896004   98.025002
H   43.233036   75.359535   96.477859
H    3.608011   84.774780    5.953937
H   93.587746   45.689148   65.678474
H   82.116295   40.572151   12.032329
H   15.619837   16.499987   35.082981
H   98.676224    8.237967   53.597809
H   55.158520   71.704552   44.409889
H   21.952629   91.203972    8.360178
H   12.373701   11.327478   97.951881
H   89.517212   41.698345   47.451912
H   17.322355   88.647362   95.975685
H   53.965477   89.928787   10.565133
H   51.323811   28.598618   53.418327
H   23.480021   64.010468   16.258259
H   94.422874   34.661449   75.894096
H   50.458504   39.245003   87.661758
H   59.901627   89.557129   64.237839
H   98.255791   51.105850   61.441418
H   60.449913   56.336136    4.090248
H   13.128603   53.557007   93.133392
H   92.346306   17.524372   13.157112
H   37.222740   15.985351   55.634007
H   40.707474   16.295681   57.036980
H   40.306484   90.935814   60.496544
H   59.075863   34.461330   10.992682
H   22.204996   69.320030   21.128483
H   37.755592   72.573288   63.276646
H   23.854076   83.678139   39.984360
H   57.353821   41.522732   63.252441
H   99.238007   86.530632   69.080986
H   90.792709   71.532516   24.079802
H   47.752869   70.899185   45.276245
H   76.192451   75.427368   18.880810
H   31.123198   61.635811   90.406876
H   53.472641   93.427498   51.854385
H   57.301304   59.068596   25.388718
H   39.915855    6.412865   18.284544
H   21.694353   78.319405   53.270943
H   40.439072   66.781609   94.788948
H    5.257632   41.249519   70.208618
H   91.156677   93.956200   19.708414
H   80.471069    2.639430   11.345341
H   47.245766   50.058243   34.826519
H   41.962231   60.958923    2.182274
H   85.979958   83.909782    9.933368
H   31.243271   34.457893   56.505058
H   38.433319    2.053149    2.314089
H   21.857122   51.010498   90.685616
H   14.160851   54.454815    2.958237
H   92.884499   73.829597    4.314937
