100
TIME:    7.880, STEP:  7880
H   84.430168   99.387779   91.931656
H   82.850540   31.869671   74.965286
H   15.220919   40.822281   30.840408
H   82.799240    7.993900    8.232391
H   24.587450    4.374041   52.045685
H    5.818585   92.671104   59.129639
H   39.979221   93.432404    6.679432
H    0.533832   70.321251   84.678398
H   59.922432   28.663486    4.068532
H   59.529030   29.530123   16.253052
H   67.276627   83.311600   80.707672
H   55.085327   18.674023   32.021492
H   41.268349   85.019882   42.014072
H   64.910698   80.787514   56.912579
H   76.316475   66.152390   71.951202
H   84.685089   22.515503   78.931915
H   90.444221    3.172509   90.735840
H   69.576279   11.398130   26.366589
H   67.995422    8.927548   78.510315
H   80.215012   38.472591   52.839638
H   96.666359   71.739014   43.366177
H   17.843615   54.544800   48.223480
H   80.532845   30.535379    6.893516
H   86.892426   31.095919   21.836170
H   47.749825   61.237877   94.735512
H   10.452511   93.801071   49.339790
H   82.578049   14.914094   56.322170
H   67.649284   24.251455   27.242697
H   82.513664   64.027206   84.680687
H    3.147985   95.809128    9.826229
H   26.182482   28.670811   85.938560
H   63.305294   34.795208   69.773003
H   25.413187   91.944466    7.689587
H   11.050227   51.567696   39.778717
H   84.844154   63.043449    4.476546
H   57.632526    2.623921   94.652596
H   35.593716   15.952551   29.378386
H   38.297417   14.742788   78.510658
H   12.453610    9.725939   80.681969
H   20.985867   74.484650   58.017487
H   96.709885   26.564840   27.993864
H   36.130547   72.504578   82.247765
H   79.102509   10.757629   70.653175
H   76.178360   44.907860   51.199512
H   73.123451   20.988651   30.423298
H   76.407860   13.213485   15.174643
H    3.299173   53.379585    1.104061
H   56.668575   76.531433   56.147289
H   95.372322   79.828255   30.137028
H   91.182373   50.672077   32.562431
H   42.960514    8.880175   36.493530
H   88.096237   32.532978   56.763947
H   72.326576   67.699646   45.213295
H   94.211243   78.636032   79.539322
H   13.377449   49.170860   67.371674
H    3.410290    4.244728   24.373001
H   95.810425   62.172371    5.440988
H   39.294357   32.718971   10.583762
H   11.752930   71.727165    6.538231
H   39.019760   33.471287   39.484642
H   56.777203   12.115578    0.010042
H   19.241341   54.596146   38.809349
H    9.033320   69.565948   93.115204
H   84.145561   84.688751   13.195727
H   45.094131   31.481474   29.399416
H   17.267273   50.535149   12.111329
H   55.341492   20.794979   47.509014
H   36.040367   68.202934   42.912170
H   49.641296   83.579796   66.014282
H   90.063454   44.435604   85.130249
H   71.806786   59.247131   67.626472
H   24.368851   89.952538   33.647251
H   93.199966   28.535608   59.709103
H   56.736095   50.693745   34.950134
H   42.058167   39.918079   98.768707
H   11.943360   12.606480   65.704048
H   82.454796   43.766960   30.493807
H    2.196832   35.468624   49.623508
H   39.387344   30.372677    5.597109
H   13.082887   79.758293   42.052101
H   65.079109   10.804574   50.959747
H   32.605652   95.573563   27.763741
H   16.301828   38.899570   80.394669
H   92.280891   86.467651   43.700573
H   68.639664   55.978359   83.875450
H   69.935715   98.498718   88.994217
H   93.442162   30.412285   99.292061
H   82.761101   74.509338   13.874619
H   19.216648   55.426262   63.742561
H   69.641724   85.071304    5.909023
H   46.504780   98.929665   99.872971
H   61.339100   88.130966   83.671898
H   90.576782   63.960064   28.377077
H    8.837839   91.243370   58.135067
H   20.351349   43.887672   97.161285
H   44.777298   84.559753   60.436684
H   37.124657   19.896305   84.002495
H   23.067095   76.361046   20.690363
H   33.327873   70.829948   85.004677
H   28.668505   76.418747   38.635044
