100
TIME:    4.151, STEP:  4151
H   36.606598   41.353424   95.345657
H   85.835365   29.800226   39.839668
H   51.106628   72.543678   74.617699
H   82.173340   61.629143   12.632079
H   57.990921    5.478457   53.153595
H   63.656208   96.711006   89.833427
H   35.416615   41.633488   15.066613
H   93.625877   47.715611   27.062733
H   51.588432   87.191589   38.796314
H   61.404518   75.985573   70.240204
H   14.139114   33.266850   39.904156
H   97.406837   31.758646   97.456841
H   79.183273   10.570721   12.557938
H   49.547523   92.281319   73.133698
H   30.993755   99.243683   51.238522
H   34.622452   48.667473   88.471619
H   90.308327   56.525951   51.270256
H   89.841148   92.837379   55.634083
H    9.921581   52.494385   82.052841
H   80.682335   17.665060   98.952049
H   17.950485   42.972569   44.577469
H   60.340759   49.594498   65.782288
H   30.322197   60.862404   13.584710
H   33.368645   86.466400   98.782898
H   81.120880   56.965385   67.195900
H   27.623720    3.939525    0.077807
H    4.133081   69.926651   82.331642
H   82.292297   50.194351    3.980019
H    1.429907   25.703018   60.952095
H   60.160858   88.102196   13.381302
H   79.424004   94.284050   80.965034
H   27.853743   37.823463   14.985161
H   62.749477   64.775368   71.751816
H   53.491379   93.308441   96.876930
H   77.588287   45.136406   77.494751
H   33.476597   10.553307    6.378344
H   77.933487   52.517563   35.547779
H   92.424248   82.986320   15.366686
H   69.859222   90.975273   42.049232
H   72.214943   23.580299   64.627563
H   51.560059   98.616455   40.141460
H   58.552902   98.156143   97.819366
H   46.995831   88.392258    1.305480
H   14.289679   82.337341   86.597412
H   96.587410   68.112152   11.322829
H   24.534077   42.090778    0.022073
H   74.164352   50.583641   65.313240
H   56.461102   38.123917   25.418251
H   86.368332   88.664093   78.889893
H   12.936450   93.915276   93.338600
H   43.227924   68.891197   97.184296
H    6.863905   78.557938    1.555372
H   94.977104   46.077637   61.787159
H   80.564384   39.478760   14.988677
H   10.285400   22.371790   35.652935
H   98.760056    8.167425   51.316971
H   59.405827   69.771309   50.782127
H   16.963615   84.876717    6.634342
H   17.657660   14.158463   92.808495
H   85.095596   46.848377   45.546272
H   21.548960   85.531273   90.751534
H   51.587517   89.305161    7.533505
H   55.872707   24.026463   48.823936
H   28.080801   64.375443   14.439007
H   97.081978   29.310146   82.133430
H   46.342567   35.914223   91.623322
H   54.526169   91.873749   67.472519
H   93.627663   54.937576   64.644402
H   63.789383   51.521942   99.888031
H   14.486013   56.927147   92.992310
H   90.218819   12.965593   12.353298
H   31.698517   13.761636   60.539700
H   36.339020   12.981770   55.318939
H   38.831249   86.696175   56.515556
H   62.305943   34.556919   16.071917
H   23.789110   73.613853   16.620224
H   43.839020   66.766403   64.461540
H   27.001858   79.297417   43.684715
H   60.566521   41.325932   64.000282
H   95.952209   82.881905   63.308861
H   92.103348   72.225662   28.084047
H   52.780220   71.336746   39.673828
H   80.431068   76.545807   25.262249
H   35.732460   67.369087   84.287155
H   50.210358   89.236931   45.359467
H   55.759106   61.529877   30.041382
H   44.390633    1.541404   21.479353
H   22.772665   72.955193   52.574219
H   41.829453   63.051094   94.240974
H   99.333878   38.492783   72.603958
H   93.898590   97.574257   21.123331
H   85.428391    7.677908   12.622114
H   51.540611   52.068672   40.007732
H   48.438236   65.023102    6.699670
H   84.821648   77.908653   11.472882
H   36.777191   31.812099   53.044441
H   33.115112    5.898037   98.460815
H   22.102995   51.580963   89.613182
H   10.969109   54.743626   97.346352
H   97.046440   72.110023   97.860657
