200
TIME:    0.096, STEP:    96
H    5.046319   62.952900   12.877266
H   26.680807   30.775772   84.051353
H   21.155910   62.835297   38.255424
H   12.988557   75.290657   48.265259
H   16.739094   80.079590   55.728874
H   94.303162   56.723381   69.812126
H    1.272963   55.406303   46.864132
H   99.661690   82.668121   30.183720
H   81.580452   89.665039   51.232296
H   15.930294   76.915977    1.752275
H    7.174435   91.518013   88.411133
H   30.182343   38.179276    5.880924
H    7.639873   82.228828   67.193535
H   11.210262   52.599392   35.326839
H   26.574293   70.836067   43.332901
H   33.497715   31.899532   57.429390
H   77.433243    0.974322   22.423473
H   39.981674   76.244553   46.084026
H   60.234287   34.915051   40.364021
H   89.598122   81.682213   43.052876
H   56.356926   69.569901   32.437763
H   93.234840   43.310219   76.123886
H   99.317345   63.588455   52.591408
H    5.579141   86.780281   92.043129
H   96.987511    6.912388   50.548656
H   18.780294   55.946079   11.712530
H   96.107430   55.907352   43.292068
H   91.205597   64.189125    0.352372
H    5.003624   60.906685   39.181564
H   99.556625   16.906771    3.606958
H   13.549496   45.433140   16.018757
H   34.544643   60.131332   90.057838
H   30.602669    5.886982   71.420242
H    1.192561   63.420815   35.773331
H   54.898838   95.751205   35.314426
H   37.765053   53.205215   77.825233
H   82.131409   77.537033   84.873878
H   40.037891   41.030399   21.641960
H   58.399719   51.557049   41.230766
H   91.463730   40.280651   69.321381
H   80.461685   11.951133   96.744316
H    6.171848   46.126480   44.100975
H   79.294632   91.089912   44.981236
H   37.602066   56.240608   13.598220
H   23.857054   71.901718   39.167381
H   43.086220   17.586128   41.121777
H   77.260529   33.267052   93.021538
H   93.621559   65.552803   52.824417
H   81.511398   34.216763   61.062511
H   67.270187   17.151663   11.804731
H   81.633774   72.318748   33.575581
H   26.642817   33.219463   60.445145
H   48.293648   98.543205    6.044275
H   24.549751   79.144882   79.570717
H   83.294113   79.587448   95.430458
H    7.151632   75.897545   73.932892
H    5.841441   16.200539   51.199268
H   65.835434   55.231861    7.902462
H   31.219706   71.695724    3.643682
H   46.433796   96.797768   69.656219
H   50.885887   18.185884   46.443718
H   87.349411   16.083757   47.962605
H   67.480148   22.223406   89.743073
H   20.637054   64.946892    0.452422
H   69.033554   73.932343   12.041113
H   44.388321   10.966736   30.274918
H   91.554054   26.199432   82.860023
H   98.147820   91.122536   84.420601
H   11.400509    3.907294   63.802437
H   46.065884   39.120159   50.990284
H   58.528336   74.101532   69.429535
H   36.187305   27.606897   45.772823
H   72.923477   23.173595    4.317411
H    3.174058   12.129853   56.380795
H   77.391617   98.540382   74.383591
H   49.673988   24.160526   63.818451
H   96.036224   24.589418   74.182442
H   31.888828    3.347768   52.891609
H   10.435772   23.277685   38.127789
H   70.445892   91.470047    1.090754
H   37.256405   32.535736    3.271081
H   20.304764   71.179726   92.308891
H   11.561526   12.086741   94.492973
H   29.369898   57.150856   89.158173
H   44.036087   97.801147   61.863068
H   20.610237   90.812653   30.780441
H   29.401300    2.484045    1.441202
H   76.528999   23.903749    6.010849
H   61.283173   71.692513   76.642281
H   24.165382   79.592690   56.449734
H   47.279037   33.649693   81.394989
H   85.058479   87.272034   95.225754
H   40.419056   18.486153   99.831024
H   66.485291   99.607109   65.150688
H   21.476067   58.874077   61.942345
H   75.235451   24.489754   35.832127
H   77.352226   19.259825   92.127441
H   10.853342   26.201069   47.230167
H   40.280846   71.220535   52.370934
H   64.700645   95.587296   27.215250
H    3.441535   76.444946   62.158882
H   85.217567   74.477982   66.658913
H   20.194410   42.432404   28.490421
H   14.956438   67.673615   84.443985
H   25.529627   29.365128   20.418896
H   81.722298   33.823154   50.632530
H   58.836895   28.308756   56.929398
H   65.599342   28.745506   24.309752
H   69.137016   41.907341   92.169456
H   99.740997   30.068140    4.832491
H   45.299950   97.318123    0.694536
H   80.211853   59.723656   88.870903
H   59.595078   78.603638   97.067574
H   63.711967   22.501808   78.667358
H   68.655678   75.972229   31.821701
H   19.915127   10.010019   72.438171
H   38.495472    6.414992   82.501389
H   41.501705   19.908649   36.856926
H   13.393622   52.307240   90.656601
H   66.982460   43.800838   43.970993
H   39.051643   20.802525   92.238457
H   24.502415   30.891285   43.952385
H   28.764715   27.895809   19.757391
H    6.198909   72.501076   24.171082
H   81.224960   12.516799   97.575806
H   42.446712   58.412182   28.311750
H   98.965981   48.517563   76.616043
H   78.578453   86.440575   33.786388
H   90.695625   57.696133   88.171883
H   60.765579   24.831871   64.048363
H   42.796089   90.327301   97.908310
H   87.227226   84.623154    5.931153
H   92.907967   75.588753   96.303986
H    7.981633    9.310863   47.934448
H   97.312393    3.973842   63.033951
H   66.193405    1.811661   85.803062
H   68.654312   86.197578   48.170082
H   89.990074   68.716530   85.473640
H   42.549316   42.319839   71.584145
H   43.369942   15.996348   99.458710
H   43.488628   67.303772   10.258470
H   63.867447   36.635521   42.890018
H   59.634590   54.110538    4.241203
H   64.311470   31.740433   75.738197
H   33.533260   74.542831   44.359806
H   40.663948   59.494469   36.742836
H   41.325493   97.408409   48.312962
H   46.584450   78.778923   69.651146
H   61.335667   70.804001   99.375977
H    4.850726   87.069595   95.380257
H   81.295906   58.864391   52.431293
H   27.725855   11.094152   52.664963
H   69.486176   37.222988    8.519897
H    6.103266   97.837112   79.510994
H    7.902392   50.076122   58.147804
H   59.227318   43.171848   49.630722
H   57.803936   56.565411   79.050705
H   43.998764   38.970322    6.350472
H   18.972425    2.276919    7.945026
H   65.293678   62.819305   72.714951
H   52.541458   90.259605   87.244621
H   50.365093   23.802547   36.791473
H   59.020870   40.848083   37.291927
H    5.989019   15.949373   77.359924
H   60.332970   17.202192    8.409643
H    9.432708   69.020546   63.088993
H   77.379448   99.896065   50.695148
H   23.506420   24.380867   42.058125
H   92.116295   28.638502   37.196960
H   19.901482   11.546399   92.024933
H   82.115967    3.921325   35.988159
H   51.137550   70.795258   57.015915
H   34.890656   83.641739   94.475784
H   72.995323   77.996185   70.908524
H   78.130737   96.119797    6.001863
H   96.461258   46.883018   23.148592
H   36.897053   48.422798   80.884163
H    0.453764    9.063530   63.038891
H   79.284187   24.727098   70.819046
H   93.150505   52.910423   84.353630
H   84.046844   80.029137   45.067383
H   16.323156   29.930264   64.359207
H   72.264297   90.315170    3.219980
H   48.345421   24.953646   71.892677
H   83.660782   94.580109   78.990097
H   96.245781   35.008682   83.233498
H   26.338140    6.991204   96.074722
H   97.339142   61.125202   20.487942
H   10.788513   60.531254   64.897659
H   46.994980   59.056637   63.883686
H   40.941181   35.788567   80.329781
H   48.833397   81.015869   26.458555
H    0.901898   14.098212   54.507568
H   37.619434   57.783585   30.411093
H   89.836258   60.687283   22.287323
H   74.976578   10.030098   31.539242
H    8.504096   81.632896   98.606400
H   33.094528    0.268079   51.027809
H   13.833583   11.208971   84.457253
H    9.509705   39.871220   99.749405
