100
TIME:    0.161, STEP:   161
H    6.434950    7.256827   98.998611
H   96.791679   13.473911   88.156372
H   82.530640   85.487007   21.449463
H   81.503632   26.017443   31.337954
H   93.728989   85.662384   61.339851
H   25.519749    1.038423   94.689568
H   44.532047   72.209999    3.042929
H    7.232016    2.531253   93.411186
H   49.670311   70.813873   89.952568
H   70.440727   18.698612   13.993486
H   85.279205   72.720734   24.241467
H   49.696796   31.760612   81.469124
H   33.021469   51.966705    9.127181
H   47.110233    4.580867   69.493156
H   82.461113   55.640503   43.033665
H   95.050064   97.654610   19.675190
H   11.122074   92.644295   88.013588
H    4.585210   86.871109   93.964645
H   47.771324   85.107376   71.843643
H   88.291267    2.156431   27.171762
H   54.722580   40.189636   52.871712
H   77.785500   44.312439    5.546283
H   83.594444   93.312813   27.744457
H    4.082895   38.612705   95.117096
H   23.824675   73.405113   37.747208
H   45.917850   22.815098   74.080833
H   48.195934   35.784389    3.161150
H   18.956161   63.954113   72.097641
H   14.672032   63.699123   49.561401
H    7.167432   86.854935   96.188072
H   22.435030   36.480003   96.671837
H   75.923035   48.062119   84.359520
H   81.698792   56.702568   12.301106
H   84.904655   58.967987   64.968636
H   76.769920   46.749863   34.532120
H   86.553246   97.132988   20.090353
H   95.241234   98.639015   21.151318
H   57.334175   56.007481   33.802601
H   43.482830   77.071114   26.695503
H   48.028690   97.110527   50.701767
H   24.239269   61.702953   46.131832
H   17.151413   19.082506   10.364247
H   12.628369   64.465408   13.102669
H   69.078583   15.469949   96.473526
H   42.689743   25.539627   69.884705
H   75.895210   66.230766   83.949654
H   37.780079   34.425900   28.998968
H   56.248013   97.039886   78.539719
H   69.733818   19.115482   38.051765
H   29.266470   33.199917   72.403580
H   43.529842   54.100876   55.118717
H   12.957463   48.799698   63.494003
H   12.219000   22.942261   93.519173
H   72.957138    4.575310   38.920307
H   27.942261   72.619583    1.772331
H   93.767685   12.363010   87.145981
H    6.459293   84.901237   71.299858
H   14.071199   61.682137    9.407887
H    2.975587   45.571609   99.123016
H   48.395973   40.163132   59.026093
H   69.856674   71.082382    1.843668
H   93.196930   26.446793   88.069778
H   85.153648   96.174126   22.512909
H   54.095650   42.670280   22.769423
H   38.712189   47.985790   10.554444
H   91.454994   34.269367   55.705441
H   74.651176   53.927334   74.835251
H   69.244377   26.745300   73.899330
H   64.928337   38.217888   50.135685
H   33.648209   56.242622    1.392206
H   16.920137   84.449898   60.216465
H   60.690884   46.182274   68.410316
H   96.493805   10.343716   57.621319
H   26.647224   39.191410   93.639900
H   69.932907   28.872782   13.602698
H   29.464239   17.890764   85.096237
H   81.573029   12.589718   93.881165
H   39.544403   40.193058   23.331314
H   69.271278   53.028889   19.483662
H   91.629715    0.185314    7.050902
H   14.032606   30.946890   89.611465
H   53.403858   45.279007   73.317932
H   27.983055    9.944627   45.234253
H   61.246307   25.938572   48.724617
H   44.491066   38.813950   32.145027
H   47.591129   14.964690   52.964588
H   77.907539   91.646904   31.220287
H   58.546951   92.404106   94.064812
H   59.024361   85.208229   26.883717
H   52.100655    2.662650   29.967253
H   30.611361   82.124649   36.861767
H   90.198997    7.615259   36.592346
H   95.614494   32.455589   31.370474
H   62.790009   22.998041   37.674129
H   53.808247   35.308384   19.786720
H    7.219565   89.373833   59.133080
H   49.822746   76.919899   27.929680
H    7.456441   17.608490   53.459251
H    1.042521   37.544300   31.565609
H   49.240154   74.567757   82.179306
