100
TIME:    9.404, STEP:  9404
H   81.368073   59.629951   90.536392
H   40.760086   14.452208   71.058342
H   41.416996   50.465080   12.951469
H   83.055038   45.206291   24.696890
H   10.931307   26.529053   10.725248
H   82.189941   91.020042   10.055152
H   60.104870   96.340294   25.858227
H   80.750443    2.168164   44.750114
H   22.459602   82.135635    8.138552
H   17.901693   51.412510   75.925362
H   25.517853   44.631317   33.906425
H   96.915077   95.064705   23.541813
H   44.087845   92.777275   90.564011
H   89.452042   76.090126   72.889351
H   94.826973   30.021187   98.663353
H   23.408943   89.220627   52.426819
H   67.893257    3.973221   29.471571
H    2.165836   37.240166   73.536209
H   91.738159   72.863892   58.799335
H   39.154789    6.109449   56.600639
H    6.229704   20.019579    2.003105
H   63.950985   56.567932   18.440781
H   60.185249   18.146601   63.291061
H   45.290913   49.327362    8.650917
H   93.244125   40.376617    5.987739
H    3.264811   48.873581    5.923297
H   51.162064   51.564930   86.555832
H   39.059448   95.386642   77.619652
H   15.652280    2.296751   12.640137
H   61.584038   58.090500   30.979153
H   86.162331   65.329666   65.364548
H   59.531605   92.690277   28.688667
H   32.762405   80.441223   44.983543
H   75.443314   11.902155   75.576088
H   46.916237   47.655220   97.198975
H   90.111404   21.994379   89.862190
H   81.764679   60.140388   49.463703
H   75.306084   86.856056   86.055428
H   48.127247   76.520348   32.994553
H   77.441269   31.812080   77.922379
H   92.555130   78.855652   63.898647
H    7.695978   78.480957   60.050266
H   92.217987   19.900753   80.733147
H   78.871986   70.495155    0.207696
H   40.928482   60.871334   60.839642
H   56.738937   42.277721   21.366125
H   15.213811   36.261120   15.739716
H   56.761593   92.228149   50.443394
H   39.917572   53.610188   69.346436
H   23.173445   73.873283   26.004841
H   43.644459   61.808441   51.351395
H   62.163525   91.117569   56.722054
H    3.930313   76.536316   56.704117
H   58.912750   53.772301   46.788277
H   92.034035   82.726654   80.324371
H    5.308430    2.641628   72.492432
H   92.425186   18.198311   50.386147
H   25.814466   88.795082   71.329491
H   31.952438   36.122391   89.540276
H   38.451511   50.611645   96.138466
H   52.914860   41.241405   81.190025
H   65.151573   40.410965   69.855583
H   12.497802   65.570946   88.609955
H   88.795776   92.990570   71.823105
H    5.583014    9.760715   71.322151
H   23.646645   74.772942    2.222296
H   33.068436   73.481140   21.087467
H   30.767288   55.362434   15.768188
H   25.595774   74.074875   70.431396
H   21.015335   20.983515   81.897888
H   23.405670   55.550816   49.348518
H   98.871162   39.350975   45.354816
H   93.833588   53.148884   20.630093
H   23.191631   54.239986   44.399452
H   15.471074   42.162128   14.319078
H   47.975716   10.280540   63.158073
H   20.866665   11.859661   57.526718
H   73.789055   35.823540   33.797897
H   12.470386   25.896206   22.605921
H   38.343895   96.738289   10.758196
H   94.914497   26.571054   42.047691
H   46.964127    5.462296    0.265676
H   12.696974   64.386391   25.532352
H   97.129631   16.879772    4.507933
H   94.434891   60.642120   36.141235
H   34.858425   54.480042   94.825378
H   95.226738   19.604759   71.962166
H    7.270711   52.558998   98.074615
H   50.844975   70.572655   51.278206
H   34.898777   22.369736   60.384743
H    8.873438   81.218460   32.057396
H   74.099670    2.750488   12.711854
H   88.268127    9.680624   46.230339
H   55.335915   83.642075   62.105755
H   94.000046    7.375903   32.178413
H   70.653427   24.378119   81.719971
H   16.157219    7.355033   96.355087
H   20.125414   51.769405   90.091515
H   60.728142   77.410942   57.354885
H   23.330437   37.312794   91.822510
