100
TIME:    7.078, STEP:  7078
H   38.665604   72.934364   92.665909
H    4.999911   88.410072   24.395401
H    1.434956   83.123909   40.256824
H   82.664627   41.037506   52.194401
H   31.773951   40.090252   73.791809
H   18.256802   93.539970   79.704605
H   82.011703   39.278454   43.961971
H   63.569450    0.939635   58.316246
H   79.637123    5.772517   54.552906
H   81.434242   18.014589   84.850075
H   41.876709   51.041187   57.959976
H   85.693222   78.474274   89.109657
H   92.409065   33.562504   21.714642
H    4.621338   83.259499   95.878242
H   66.575386   37.790977   10.522442
H   16.932499   92.661133   45.505371
H   54.936470   50.124645   17.726618
H   52.427341   50.423492   54.164803
H   55.505047   75.285080   36.258076
H    1.826012   55.501141   98.235802
H   44.258163   51.580681   65.130974
H   40.955093   53.480133   16.521164
H   91.240700   37.057304   29.841372
H   61.410606   21.501680   81.400131
H   76.434639   24.839081   88.812538
H   14.233913   17.441742   24.811258
H   51.735615   48.253777   40.407238
H   35.320816   86.816826    0.732227
H   65.075157   91.263771   22.590940
H   72.395218   15.659634   46.068993
H   94.618568   56.752846   49.390175
H   12.666418   56.951290   44.018135
H   68.922859   50.621941   35.439095
H   77.163948   25.066147   73.566589
H    4.803799   23.766090   55.683937
H   87.916344   39.808441   97.173531
H   58.670547   45.324341   66.184052
H   71.444191   29.421597   21.916542
H   46.308628   27.198099   58.401443
H   96.525215   49.565075   94.916611
H   51.520187   99.048317    9.099648
H    3.718595   69.359528   41.304317
H   72.200531    5.946743   12.725945
H   27.389614   31.446554   72.784294
H   42.691566   52.628834   61.793770
H   86.760826   97.918869   11.916395
H   97.031540    9.763402   93.405937
H   56.619625   68.271088    6.524321
H   71.925179   46.249477   62.131920
H   74.343506   38.465122   88.638313
H   43.015583   86.308060   28.038818
H   49.119259    6.952549    9.410081
H   55.692692   63.049377   91.789406
H   12.783623   91.717972   44.148331
H   77.233871   78.887383   60.552265
H    2.411400    5.088354   51.674973
H   44.965702   85.313576   29.164253
H   99.013596    8.457430   31.243402
H   48.503197   37.836666   68.106606
H   91.944267   71.827515   62.295433
H    6.185911   49.410980   62.538185
H   47.705879   62.061050   75.097931
H   54.586811   24.293186   48.110748
H   29.072876   80.319946   34.972248
H   13.259948   95.535889   54.712452
H   66.534729   90.405083   64.690445
H   19.687387   93.067657    8.787578
H   91.439751   22.335958    4.571929
H    9.667585   41.206390   16.312130
H   73.782433    4.143884   86.828888
H   97.273125   13.814742   77.245186
H   90.402077   16.593800   74.862617
H   45.492691   68.203247   80.269592
H   74.392357    1.453389   82.603149
H    3.426487   38.737156   37.960331
H   92.984261   61.207577   19.670160
H    9.616097   13.181210   16.270716
H   64.517639   87.907326    5.330021
H    0.930355   32.728405   96.648552
H   52.413010   23.447559   11.145120
H   49.378700    2.507398    3.025035
H   72.423378   90.372604   94.859108
H   65.575920   25.487219    4.015560
H   37.104763   17.838844   16.951679
H    7.689680    6.150731   61.619652
H   88.389938   69.042938   33.301132
H   39.878407   88.724205   61.049721
H   69.862724   38.685207   22.190033
H    2.570773    0.081075   70.301888
H   40.548527   18.067089   77.237244
H   13.683674   55.622162   82.936203
H    1.999223   27.812302   68.387199
H   39.166843   39.894924   66.357185
H   31.328182   42.586876    4.057681
H   34.219063   15.725060   78.731537
H   78.535355   16.229582    1.860852
H    0.784365   73.871674   30.127285
H   24.615145   36.678890   36.791008
H   71.533501   67.366722   52.181316
H   78.852501   97.002304   15.893706
