100
TIME:    1.790, STEP:  1790
H   96.272369   57.869186   97.507217
H   51.478157    1.795254   90.912956
H   10.523336    2.684297    2.322791
H   81.777054   58.902306   42.047474
H   79.138184   16.233906   17.170506
H    0.258874   99.268852   56.016071
H   59.155041   82.207191   30.433189
H   79.195824   43.459270   43.842552
H    9.626381   14.192301   87.412926
H   25.923464   42.085106   77.785179
H   33.753586   38.266895   67.326752
H   87.520630   13.413935   65.514870
H   29.400845   53.409935   47.217194
H   66.451286   99.558571   93.459251
H    2.272407   10.137363   64.730576
H   29.553009   55.170425   84.455826
H   80.154144    0.372545   36.329956
H   39.395966    7.652908   37.490524
H   73.141930   53.447617   57.665134
H   44.291702   67.799179   38.204140
H   58.055496   78.017517    8.661026
H   33.984806   46.462532   66.840736
H   61.844948   80.064262   81.135757
H   52.731133   58.149967   74.133942
H   65.563225   44.210533   49.769043
H   38.451359   74.271072   21.395906
H    7.724701   68.070877   35.486881
H   81.506668   39.990856   25.939779
H   50.092758   11.494979   72.558189
H   69.629951   46.537582   25.688164
H   86.515266   82.563324   67.767151
H   78.778931    3.058580   33.554787
H   96.442337   37.516899   59.054291
H   53.733208    9.679888   96.341965
H   36.278572   23.610023   33.726776
H   28.188564   25.097437   14.486230
H   51.482841   38.983253   49.510258
H   90.007591   26.192028   48.756023
H   70.250168   42.296776   70.564697
H   94.595619   44.609661   78.868179
H   12.915115   17.602697   84.516159
H   70.746185   92.193306   86.897385
H   26.659155   74.234039   30.767262
H   65.055641   42.771126   55.750080
H    1.386707   61.264278    9.285040
H   54.994061   97.058296   90.439125
H   54.980824   22.300776   42.918648
H   56.335011   13.813105   79.333000
H   17.354689   84.201561   73.071762
H   63.431820   57.994343   58.468586
H   43.408054   96.830193   72.290329
H   92.124138   97.640106   56.552891
H   46.011154   32.387756   98.908745
H   35.240246   78.002022   10.804598
H   98.257446   15.425570   15.595564
H   95.805923   10.650743   31.690979
H    9.730808   37.897469   26.231451
H   92.770111    7.843974   67.449295
H   31.450272   14.400136   74.064850
H   40.896748   65.374420   12.697938
H   72.615189   95.329414   74.832634
H   35.380554   11.283319   14.361756
H   95.646927   85.088448   10.757277
H   65.956726   51.531647   78.543190
H    3.369341   17.879440   62.261364
H   91.382851   53.286812   52.024120
H   43.953842   10.248607   53.483837
H   56.718254   19.909290   51.774952
H   46.116455   21.168335   47.967598
H   66.646301   38.174866   97.963898
H   65.191811   73.609077   40.679203
H   26.373720   92.118317   87.677208
H   90.279907   29.765606   15.849857
H   90.796135   36.104698   96.823540
H   48.474037   31.190657   37.092510
H   67.978203   22.294432   75.484581
H   29.475019   71.402573   22.705397
H   16.077785   33.676674   13.294126
H   47.353134   48.258640   37.649529
H   11.740541   11.466284   66.711098
H   45.910961   47.800030   86.973076
H   75.629288   55.917618   37.099197
H   31.056042   37.133362    0.388635
H   73.306770   65.334206   99.933197
H   65.171326   36.918907   74.232056
H   10.092068   74.805794   66.086281
H   86.704765   73.205338    8.897297
H   84.770630   61.982849   77.135567
H   92.829292   94.508293   13.554953
H    8.077972   35.630219   88.205971
H   97.276680   70.085129   71.263260
H   10.729023   30.130522   67.627220
H    0.134476   81.265854   57.394485
H   20.237736   21.808958   47.508652
H   25.644352   89.392029   57.218681
H   41.768265   25.045710   74.993042
H   20.520588   70.404945   34.244843
H   13.437411   31.478455   27.396042
H   23.441048   44.566280   95.111588
H   50.406418   32.724865   25.283371
