100
TIME:    5.503, STEP:  5503
H   45.176674   17.368690   94.107864
H   48.495277    3.062126   25.086872
H   74.350784   69.811905   58.749905
H   82.400269    5.926044   38.524780
H   45.881180   13.847139   16.496475
H   42.685932   95.246284   23.726580
H   64.556236   32.926624   20.794847
H   87.361343   64.680252    2.926003
H   18.353691   57.202393   53.693550
H   24.457453   95.398293   23.180838
H   88.379379   87.667847    9.673038
H   45.807861   99.527809    1.220012
H   92.909134   28.813633   78.215996
H   82.605431   88.114082   76.021309
H   47.436089   78.477463   86.248291
H   80.259811   30.416641   76.243866
H   81.588539   45.950771   74.348145
H   18.745665   27.061291    8.763739
H   30.979534    9.209521   53.280224
H   44.255554   88.951454   91.002480
H   37.720894    8.375710    7.883831
H   89.958313   51.389297   50.646988
H   12.270516   49.866676   74.902771
H    7.749580    2.660128   98.372009
H   32.764435   49.745026   77.180763
H   21.460543   63.978523   72.939804
H   87.549149   13.723196    9.153511
H   68.213753   13.301125   48.673965
H   30.828712   48.367008   97.043152
H   12.003109   54.640526   20.861176
H   32.632431   15.520469   73.999092
H   13.219906    0.472245   89.823799
H   57.982128   65.856651   93.550652
H   10.616012   69.405632   39.917824
H   43.982208   42.935562   59.821129
H   51.003803   16.447140    2.125326
H    7.608663    3.002836   42.080120
H   36.542965   58.248692   10.773674
H   12.787854   61.515800   11.030870
H   44.872135   97.010445   70.999901
H   59.160492   45.003242   71.993996
H   37.042198   58.836845   61.330730
H   58.641399   96.499802   98.962044
H   27.958683    5.010532   18.790445
H   79.310753   14.772737   27.017336
H    7.089890   67.878128    5.517718
H   84.726852   24.110119   78.289436
H   56.533306   52.049088    9.072333
H   25.888680   76.690918   24.956585
H   41.292225   14.490530   98.778122
H   43.124775   38.364685   11.437480
H   72.568108   53.102695   12.799500
H   23.020382   53.916992   83.263786
H   49.253082   17.415100   74.648827
H    2.637481   40.861660   47.154095
H    0.449689    6.745101    5.291702
H   45.117485   30.760201   79.368492
H   16.290981   57.197319   71.810532
H   24.286879   71.284309   89.014900
H   95.878296   50.767757    7.092171
H    6.833735   22.657410   85.338707
H    3.605350   76.720932   46.361847
H   47.659550   31.768709   56.113220
H   20.920315   71.740311   77.734390
H   50.747162   21.328281    8.039245
H   63.287987   68.702660   71.563637
H   46.052795   38.615406   32.747879
H    0.235749   32.260410   29.277822
H   31.170889   54.375847   15.093289
H   41.875481   24.926670   90.145386
H   47.288033   20.976578   96.134804
H   20.219906   68.891068   59.526802
H   48.185745   46.104454   20.650421
H    9.068333    1.134709   76.184135
H   27.493452   36.485813   18.562817
H   55.755112   60.264748   25.647745
H   66.592613   49.583149   88.371574
H   90.521271   90.892677   18.349154
H   25.402172   37.354679   79.080727
H   29.650497    9.244195   46.832825
H   18.556902   86.212723    8.890733
H   54.226242   80.158615   26.615095
H   65.953224   99.148987   54.022274
H   28.747873   83.062546   60.802029
H   84.378395    4.668147   14.298153
H   24.638927   11.187678   23.928391
H   34.687660    3.239901   85.947739
H   44.532372   64.719116   38.520180
H   69.886093   87.774330   83.183357
H   79.799866   82.867477   20.936892
H   49.228111   70.576523   49.675091
H   85.465172    9.357732   38.380753
H   38.206284   92.636757   44.560017
H   79.111244   47.033764   97.858055
H   61.447990   56.805256   42.538456
H   48.446838   78.424408   83.211700
H   25.799913   83.486687   20.706787
H   27.064482   63.092438   67.972435
H   46.562775   60.571568   84.103111
H   81.023209   37.418468   67.620087
