100
TIME:    9.668, STEP:  9668
H   63.514557   35.419746   90.294693
H   33.468826   28.758732   87.703362
H   45.954899   69.458611    9.852180
H   83.099350   34.329826   10.225955
H    8.565676   47.689819    3.567427
H   78.097168   90.734032   36.200119
H   46.269604   14.167178   46.503368
H   60.000565   25.006977   20.509697
H   15.969978   56.753189   91.521141
H   10.689993   55.203159   86.262032
H    0.961155   55.253998    8.476572
H   86.840248    8.297394    4.750662
H   27.253494   76.796928   64.327560
H   76.380142   75.276405   92.978584
H   98.033516    6.439400   85.966087
H   12.793312   66.130295   30.512688
H   46.664009   21.434265   53.504532
H    7.811568   24.393852   64.383865
H   95.851074   83.937744   72.711472
H   32.042789    0.503049   74.575005
H   90.563400   93.737740   94.836823
H   89.260925   56.918396   95.958801
H   56.660469   16.000513   55.737961
H   20.760918   52.485565   89.044510
H   83.801743   19.439423    7.936439
H    2.019430   41.090866   81.080360
H   28.396172   40.589771   91.792648
H   16.784163    7.709264   86.344994
H   21.392666   26.248415    0.161258
H   71.707207   51.556564   51.966652
H   96.551369   89.004105   44.477707
H   76.200790   85.394989    4.248887
H   51.359146   61.125427   68.766747
H   86.597733   87.708244   64.453896
H   40.346046   27.666695   13.261224
H   13.060175   42.673275   89.032356
H    7.086352   50.472420   70.265945
H   64.393364   82.026100    4.685966
H   36.982899   70.767906    7.411659
H   52.575375    7.096503   98.692398
H   74.512283   87.915344   70.118370
H   85.447258   79.517654   73.525139
H   94.489960   21.484890   99.803215
H   62.017254   74.926308   26.019176
H   18.022192   50.445469   83.427063
H   53.332993   47.313122   22.438665
H   17.278133   50.620068   18.274588
H   56.777706   94.947266   66.778229
H   47.633820   31.746479   58.815414
H   28.714399   77.893547    7.545846
H   45.114796   36.432037   51.846878
H   74.993729   66.621353   39.392220
H    9.406309   78.067078   41.370316
H   52.799774   49.464012   58.438179
H   71.014259    5.861675   82.568146
H    5.637241    2.363926   63.505249
H    9.162003   10.580399   75.494667
H    6.157018   63.863808   64.529686
H   52.774822   47.278824   69.273796
H   21.031040   70.903625   88.629677
H   69.569275   28.964849   60.609005
H   55.781700   37.953690   57.910583
H   30.427811   47.566933   70.511612
H    6.923695   94.428680   64.656723
H   16.061684   88.675636   95.906990
H    7.429376   61.648674   17.832468
H   11.886570   82.609314   33.833935
H   12.530986   70.460579   28.388916
H   38.754280   55.105515   53.873768
H   26.377029   34.242733   81.337952
H   15.021669   37.586521   46.182259
H   77.130318   30.585350   64.704926
H   76.620575   40.091084   13.860500
H   17.380779   37.532528   28.713385
H   28.187475   42.550861   34.335758
H   54.217598   27.200493   45.395195
H   44.843697   89.010056   62.209641
H   86.192253   18.562187   48.378403
H   25.129522   25.120754   25.552637
H   25.397388   82.357185   88.014473
H    0.082825   29.302256   57.826622
H   66.773674    7.176094   78.178413
H   29.395369   68.801430   50.675114
H   15.292474   39.471268   80.394737
H   81.580521   44.128021   10.550054
H   28.781704   64.178185   13.158603
H   12.858782    0.409485   84.550667
H   11.516100   31.434458   95.339386
H   56.323490   55.873314   49.119026
H   11.557462   11.507370   69.822327
H   19.677725   95.474686   37.632591
H   93.632996   22.605349   17.741213
H    5.191018   17.602316   66.645866
H   79.360817   99.545883   82.194984
H   89.435959   83.729103   38.245064
H   92.458725   13.953733   68.084106
H   95.202293   22.504826   81.172348
H   19.615831   64.831360   84.790245
H   48.151726   78.550957   35.241421
H   39.727715   30.538956   66.391724
