100
TIME:    2.232, STEP:  2232
H   66.381256   17.335434   97.102554
H   39.183144   25.759848   18.793783
H   18.120886   34.482529   97.135262
H   81.851242   40.692467   17.819260
H   75.179230   51.662159    5.186659
H   93.406502   98.790001   99.787743
H   35.991451   12.052219   64.998161
H   44.455498   81.698120    3.258482
H   98.761116   71.695663   59.591801
H   13.845957   48.431572   95.091270
H   92.639832   56.051838   24.752272
H   70.652924   35.569138   34.052315
H    1.285534   26.668449    3.286743
H   44.565758   98.196205   27.096195
H    7.649014   70.656036   43.482506
H   11.780476   16.510384   47.766373
H   44.617981   29.602730   76.571381
H   48.841476   86.158363   22.166199
H   80.027946   71.989853   80.952576
H   32.384491   58.413006   68.297585
H   31.826584   34.014851   96.664001
H   76.364365   47.046997   29.202835
H   55.943611   76.469505   68.490036
H   11.664574   63.451054   41.306686
H   49.754387    9.156593   53.029953
H   36.424671   61.100033   79.966286
H   69.611824   49.696545   44.257954
H   44.212013   60.621929   40.549938
H   59.703506   51.596321   51.664085
H   86.578590   35.598190   60.826107
H    3.902753   22.200994   32.793781
H    6.687067   90.845238   92.636665
H   27.576340    5.178937   98.873138
H   72.408409   69.173294   77.720718
H   25.290939   90.197937   60.640244
H   66.618240   59.820568   12.967057
H   93.877045   22.795771   84.338257
H   71.737053   18.102139   79.947151
H   50.860779   32.783813   28.014540
H   52.963428    3.230401   13.642893
H   82.708458   32.769047   94.929489
H   31.021759   12.030244    7.662917
H   30.466360   76.884583   62.691872
H   36.830391   50.179832   98.967453
H   63.045033   43.826672   47.109596
H   49.291683    5.488758   92.233131
H   59.167454   46.221832   46.881508
H   56.358616   18.363878    6.681409
H   30.273558   47.594555   55.440300
H   72.698814   64.721504   27.555698
H   43.374332   54.158470   76.950699
H   13.603941   56.626896   27.535175
H   55.180145   34.950623   73.239616
H   25.005642   70.792274   30.307673
H   63.071899   54.174709   19.345533
H   96.358963   10.186224   16.644257
H   37.750546   25.143837   68.269203
H   59.857513   66.102737   56.064774
H   66.308846   33.076855   40.131477
H   11.730532   99.345886    0.127195
H    0.496490   74.772530   40.371143
H   19.694439    7.168402   94.362671
H   25.627583   54.947792   80.434250
H   96.306458   53.936020   66.544930
H   20.913277   82.578186    3.422624
H   64.229958   31.313606   78.158607
H    8.490747   25.529379   74.823074
H   26.186424   45.188049   72.905106
H   68.146355   89.409050   20.244804
H   75.602844   60.407730   97.033173
H   51.156746   43.534676   35.377041
H   89.928650   77.449280   20.037886
H   61.461151    7.903683    4.515919
H   81.070732    8.133565   70.554161
H   69.783836   31.819571   70.598618
H   78.425255   50.623642   45.743916
H   69.606903   33.091743   30.523825
H   36.843746    4.775155   37.705334
H   68.543518   46.962643   42.580780
H   90.063789   87.394745   28.632301
H   54.560635   52.372723   13.390373
H    8.792099   58.804214    0.138535
H   59.021633   44.511719   42.486790
H    3.710810    3.156710   59.561310
H   43.649994    9.270508   31.384979
H   99.918518   91.039528   96.779976
H   16.224966   41.068344   29.973783
H   91.885956   26.595062   72.535896
H    2.001935   69.898033    9.939119
H   69.000504   17.443985    4.007480
H   15.365295   93.953506   80.597488
H   43.434361   63.371326   76.050957
H   28.492950   94.511826   91.588516
H   62.960041   48.620617   77.310219
H   18.001278   49.801277   67.375725
H   78.275620    7.592522   52.163300
H   85.436905   95.770576    8.825018
H   15.060279   35.241821   20.322868
H    2.386219   46.471569   58.085457
H   77.856064   21.372272   82.712067
