100
TIME:    1.199, STEP:  1199
H   36.238441   12.066862   98.048294
H   67.917870   69.754341   53.632778
H    0.365044   60.164822    9.261642
H   81.677856   83.250755   74.442986
H   84.431717   68.862663   33.194618
H    9.423748   99.909126   97.486229
H   90.130974   42.300335   84.216133
H   25.647263   92.331070   98.105202
H   24.154289   71.014404   24.613920
H   42.073753   33.599220   54.643311
H   88.726974   14.486648   24.256056
H   10.076481   83.790489    7.583252
H   66.992661   89.166084    5.958485
H   95.714516    1.380523   48.485210
H   95.084496   62.924961   93.137100
H   53.315292    6.862637   33.513168
H   27.668915   61.288773   82.521629
H   26.766335   36.393417   57.979294
H   63.934639   28.652781   26.530680
H   60.212883   80.352158   97.966179
H   93.126282   36.853355   24.701694
H   77.315727   45.682480   17.162128
H   69.735649   84.870827   98.044403
H    7.641476   51.061863   18.025795
H   86.701286   91.083900   45.408867
H   41.161251   91.883118   76.790100
H   58.688538   92.635757   23.759047
H   31.373154   12.404817    6.404705
H   37.242188   57.874546    0.495748
H   46.967861   61.164688   78.705833
H   63.267002   29.564760   14.533581
H   41.462681   19.386292   88.266655
H   54.814510   80.757942    5.812344
H   28.762520   63.841530   21.239172
H   50.968803   68.284920   97.740372
H   76.803101   78.671768   16.518744
H   94.798943   60.626320    2.941904
H   14.435192   37.009052    7.052310
H   96.817032   54.912880   27.208313
H   50.260597   99.936333   32.368587
H   53.301979   97.323509   70.592453
H   23.861900   65.671532   59.131138
H   21.568525   70.689987   88.078255
H    2.795612   32.864914   97.966194
H   52.650543   84.584152   58.711517
H   62.618732   85.785866   88.040352
H   48.740406   90.419617   37.868599
H   56.303448    7.728246   42.765240
H    0.080606   33.147972   96.644669
H   51.036655   48.998943   99.806236
H   43.453144   53.887978   66.058929
H   63.401985   52.481304   95.348953
H   33.751259   28.960938   33.233330
H   48.924976   87.642204   84.725601
H   45.308052   63.616695   10.580460
H   95.066452   11.271854   51.810013
H   72.262131   54.950401   70.022301
H   36.778259   63.656960   82.671585
H   84.839531   89.428757   19.435101
H   79.896683   19.946661   29.507164
H   35.335003   22.813019   20.912666
H   56.356293   16.785233   41.104401
H   55.561218   25.390949   51.302101
H   25.372049   48.316750   94.586113
H   79.913307   65.083092    7.221356
H   27.688698   82.667274   17.079588
H   91.370193   89.815430   24.950504
H   97.542488   86.108810   23.521734
H   16.659340   63.633835   85.033302
H   54.673981    8.448713   99.208374
H   83.958153   13.820871   47.767307
H   75.103470   11.733023   44.407066
H   28.815182   58.997272   31.004513
H    3.801064   73.505478   31.948463
H   19.980892   30.349733   92.289848
H   54.006184   84.417625   15.252509
H   75.816948   22.625433   12.249926
H   88.311523   72.322105   80.656708
H   19.023264   49.990086   31.057735
H   40.724380   43.654396   17.626129
H   34.345448   41.685863   51.649792
H   31.284771   52.057938   86.517532
H   93.661720   27.268812   44.098637
H   32.650402   14.761575   53.914619
H   93.947586   73.886765   31.522758
H   23.695637   53.097340   25.045616
H   47.233223   16.175865   80.715988
H   75.256699    9.299774   83.278709
H   80.564888   27.413408   18.390255
H   60.330307   59.947105   67.076927
H   73.090553   38.174274   58.782421
H   67.000816   85.682594   56.366867
H   62.214027   63.554726   11.672613
H   63.116669   85.961159    7.661494
H   35.863087   42.330887   43.637657
H   92.954041   48.383476    5.518953
H   67.431381   36.488461   68.233475
H   11.267468   26.446442   36.852455
H   51.594383   42.018711   44.616123
H   13.703384   47.906574   82.204903
