100
TIME:    0.448, STEP:   448
H   87.026283   80.937477   98.735855
H   88.808266   29.034561    6.260119
H   87.461700    6.135095   18.079613
H   81.551804   14.192312   15.606498
H   91.158356    8.666696   53.557884
H   21.069313    0.726057   23.112238
H   29.491253   91.588280   25.486956
H   84.674377   27.359783   67.061104
H   42.615303   43.220078   71.888069
H   62.597450   22.818413   25.232889
H   58.583160   84.268875   96.596092
H   38.742046   46.146523   61.039818
H   14.765475   34.602890   80.601067
H   32.899494    3.695980   91.332588
H   85.951393   30.006346   29.236986
H   83.510681   72.552620   95.852036
H   88.048027   11.623947   14.144395
H   10.717986   72.914368   84.014938
H   52.240372   97.145996   86.965271
H   80.522438   96.138916   46.751488
H   37.691589   11.617073   45.083176
H    5.304952   44.691246   81.109505
H   79.762581   90.978661   19.532227
H   77.417465   42.054813   73.803177
H   13.560755   50.644749   39.866776
H   44.604786   14.260682   47.182091
H   23.446856   23.853809    8.856161
H   94.740410   77.350311   81.583145
H   20.912613   89.738274   35.994415
H   18.171888   79.751755   19.003242
H   33.724796   62.216988   73.960930
H   94.044464   40.133446   57.790474
H    1.913666   35.703957   38.156334
H   97.030861   32.666077   52.877464
H   69.636086   25.054947   52.007607
H   11.506822   19.678431   19.102827
H   22.768375   88.128761   43.765881
H   45.472916   50.754543   54.054546
H   30.579426   70.944511   99.187424
H   20.997185   70.243690   73.282585
H    4.626698   71.551430   52.895618
H   91.357475   31.964136   23.847799
H   15.099921   66.186462   33.832878
H   50.751328   20.279486   24.534966
H   17.795143   14.216010   94.443665
H   72.229759   71.626030   85.075127
H   40.810535   49.908817   31.451361
H   56.263340   99.995895   96.297668
H   78.124504   95.346481   26.602674
H   35.285778   37.568241   52.330269
H   43.510441   26.392317   58.140522
H   26.904352   22.167557   44.652184
H   18.172274   24.606384   76.851662
H   66.313782   99.892250   51.585163
H    5.093668   97.778503    4.207628
H   94.126785   12.061117   77.375824
H   24.653267   76.620033   98.595863
H   92.699890   34.578819    2.015127
H   25.609863   57.697815   77.090897
H   29.455338   62.223763   50.867393
H   87.960587   57.735390   79.465729
H   83.010742   23.775436   75.085236
H    4.619896   76.603157    2.823396
H   73.803474   44.231491   14.976507
H   50.104866   25.062820   37.282455
H   73.824043   20.001698   72.675117
H   51.624962   63.848576   88.691269
H   49.419411   43.159164   87.619591
H   79.231041   17.595894   32.134686
H   39.461693   70.677879    0.788688
H    7.805783   64.922722   56.774357
H   37.027485   36.657356   89.422066
H   77.781174   96.147713   50.261951
H   20.330124   21.029039   76.582634
H   83.771408   29.281149   35.359791
H   36.249920   36.285057   65.783646
H    7.630095   87.714958   98.961121
H   53.028183   21.426762   39.181889
H   83.026573   52.190258   22.683815
H   77.554733   84.555672   82.325623
H   19.648830   33.916424    6.764830
H   74.937538   47.153336   49.318176
H   46.141949   14.735003   72.569672
H   80.988373   50.497532   22.510292
H   30.516256   20.860733    4.323941
H   40.982067   25.509628   72.893700
H   97.075615   70.779671   44.905514
H   63.167084   69.426064   91.082527
H   64.980171   69.228264   24.535332
H   26.726921   90.852219   40.227673
H   42.356571   97.622894   42.922680
H   11.434301   29.199598   42.059868
H   14.028526   41.054291   53.573418
H   90.528419   40.407272   57.023945
H   48.846531    9.599865   26.380810
H   30.924576   78.040276   44.309242
H   27.042009   93.390343   11.424049
H    8.510062   20.052124   48.867584
H   87.370476   38.781445    7.525587
H   67.063797   67.197441   54.537338
