100
TIME:    5.029, STEP:  5029
H   77.231850   60.836403   94.541824
H   61.586403   77.378555   95.199890
H   66.199570   35.709885   64.315239
H   82.320709   25.456051   64.508064
H   50.126755   75.854034   29.347115
H   50.037937   95.759804   76.785362
H   89.400444    0.918787   83.727356
H   24.616814   23.674595   46.448299
H   30.005516    2.775469   83.529549
H   37.410103   88.592354    4.618282
H   32.469696   68.595306   55.330128
H   63.900375   75.768501   34.958824
H   23.156113   57.476891   25.315186
H    6.075171   89.575081   39.949593
H   41.671654   20.816854    9.032137
H   99.317886   71.874283   15.590014
H   19.704994   14.600739   31.198057
H    8.609742   50.123035   25.194548
H   23.596790   89.325424   28.309443
H   57.024826   99.019325   58.730324
H   65.848732   55.565239   20.748936
H   44.515472   50.760056   91.012497
H   18.599632   53.721687   88.464020
H   51.791904   96.989716   33.575516
H   49.717804   87.334564   73.680153
H   23.621302   77.988205   17.513948
H   28.422216   33.427021   99.748024
H    8.209836   91.176437   33.004395
H   20.522163    5.362473   19.448532
H   93.828064   66.371910   83.179909
H   13.977418   73.015076   11.500465
H   83.291420   13.567634   33.704308
H   24.592926    0.537262   50.848991
H   90.588272   12.844823   59.887215
H   55.764221   78.766190   30.959175
H    9.800279   79.321358    3.616083
H   62.144646   20.363029    4.730906
H   56.132641   66.923058   77.323570
H   32.796879   71.844048   56.964706
H   89.517830   41.385246   33.705334
H   91.555603   28.740591   60.826763
H   79.642601   37.561958   39.064968
H   54.558559   93.657364   64.722603
H   58.223774   97.054382   72.444504
H   20.427557   33.472855   86.455345
H   13.206316   58.837299    3.591263
H   81.023727   98.331322   73.740089
H   56.507992   47.167038   79.743965
H   12.034508   15.948429   43.865715
H   31.350925    7.275946   31.929260
H   43.160938   84.125763    6.440611
H   49.532066   97.085434   43.918045
H   13.187831   51.168579   10.792048
H   60.228653   25.150436   53.731956
H   40.378876   99.321785   43.121883
H   99.858627    7.243703   21.427780
H   15.069346   44.437172   34.287285
H   51.585587    1.960350   84.019272
H   86.903389   51.256882   25.403587
H   27.156895   14.333203   20.573860
H   76.933685   44.699726   22.295837
H   20.426836   81.132858   67.809677
H   15.478730   64.113205   88.616821
H   88.372047   69.158249   90.601303
H   31.931387   59.187160   63.897953
H   92.406700   92.266685   43.537056
H   84.082153   22.228722    9.861973
H   32.978462    5.150635    6.617881
H    7.545701   88.434471   44.823135
H   32.274117    1.085554   91.143494
H   62.339211   53.227036    1.820145
H   59.302162   84.622116   24.821228
H   79.090927   69.549995   32.804916
H   19.501453   31.133900    4.347922
H    4.640419   35.809559   82.630096
H   44.548096   29.884062   57.540546
H   23.555208   90.665962   79.988914
H   68.251892   21.886017   92.172050
H    2.673083   38.746967   73.793648
H   52.893555   35.063183   87.668457
H    9.281662   81.308975   80.560692
H   18.656990   77.070755   66.255638
H   35.970444   91.221985    8.879733
H   96.137375   42.501755    4.096212
H    7.458238   34.318115   60.247246
H   35.549404   93.777489   91.012115
H    3.030272   37.703659   63.345657
H   36.904541    2.661084   43.444016
H   60.049667   14.165810   87.060066
H   21.707197    2.367188    3.993097
H   29.830101   44.982807   39.665081
H   50.393970   73.708252   29.350767
H    7.822096   78.417336    7.904865
H   33.299812   18.278284   65.896904
H   69.642601   99.261620   31.646118
H    9.296416   97.142548    7.694555
H   63.423943   56.284634   47.966705
H   25.325026   59.056610   75.559502
H   69.143158   58.528339   23.805367
H   51.580547   49.580196   13.280698
