100
TIME:    3.608, STEP:  3608
H   73.328033   91.149414   95.842789
H    0.906463    0.363935    5.591484
H   41.772987   33.477440   80.989265
H   82.082199   84.000053   42.396587
H   62.854523   61.954617   67.876968
H   72.074471   97.299278   36.058235
H   63.873241    4.966176   72.603233
H   36.304611    0.740566   76.919792
H   64.936409   39.398972   72.977150
H   76.243889   68.188896   48.976624
H   64.647659   11.418144   92.208748
H   18.132523    4.541141   36.107170
H   13.757922   43.418457   66.522301
H   76.434044   93.954994   31.810574
H   24.388123   47.746017   77.339943
H   56.454803   96.160088   33.546242
H   33.973335   20.612354    1.838826
H   78.241417   19.243813   74.460632
H    1.464527   29.713343   53.444462
H   95.314568   29.196436   61.982048
H   50.172882   97.028931   59.313271
H    8.282822   48.873657   12.023712
H   37.572029   65.278587   29.121975
H   83.819191   79.953979   39.112225
H    0.542112    0.025932   63.185707
H   30.113775   20.103636   50.992523
H   50.957478   92.496414   71.560463
H   28.109598   24.848938   86.032890
H   89.622940   76.438065   86.620644
H   39.339340    1.541416   70.214294
H   58.054485   45.591602   23.925468
H   93.568642   52.824402   65.253426
H   24.499769    4.504265   22.834089
H   30.548637   43.071022   19.751614
H   91.085403   86.182884   44.429680
H   86.260429   67.913605    8.232663
H   25.853485   72.402817   92.761711
H   14.867654   92.920662   77.047493
H   92.776978    2.806505   94.670586
H   23.360500   74.414932   21.903814
H   88.670914   79.982315   27.348616
H    7.354691   73.788422   72.308243
H   42.318653   85.136047   62.082104
H   48.963531   73.239838   33.505310
H   43.688168   89.538513   64.857117
H   31.539486   31.733875   97.818092
H   69.922165   21.053272   60.098549
H   56.432102   32.531189   91.820549
H   70.493271   33.634872    0.548322
H    1.548000   85.654610   31.316097
H   43.269352   21.314518   91.459000
H   80.475052   28.943470   37.203754
H   83.717079   42.929138   93.322151
H   93.141808   48.340126   91.028229
H   53.519119   74.781677   31.034189
H   98.080643    8.739126   69.801971
H   24.983622   85.439232   99.138161
H   57.396965   36.156860   20.621681
H   74.831490   91.215042   34.494801
H   20.928520    5.110060   60.990486
H   87.295784   10.784219   33.087696
H   70.859642   94.359329   32.103874
H   19.007006   61.079765   86.059074
H   90.794304   61.421127   29.183094
H   75.531334   72.679756   31.566866
H   79.700081   62.908455   59.516922
H   98.091446   73.098755   41.257122
H   31.136665   23.882898   38.685863
H   36.724724   90.538467   33.945202
H    3.484923   29.614103   94.135712
H    7.461439   49.911720   18.867790
H   76.470505   31.782776   20.782204
H   71.743057   39.839291   69.241203
H   50.787258   21.057629   88.779381
H   36.127834   33.782223   74.908730
H   10.951100   38.811661   53.156109
H   94.537758   13.828796   54.858616
H    1.490730   14.801836   13.695349
H   34.529266   42.920895   57.939423
H   22.582344   12.453835   10.088770
H   81.481308   66.608078   95.630966
H   12.036263   67.790543   85.078491
H   46.077129   67.481445   73.544098
H   98.375229   20.903381   33.881729
H   76.649460   23.201656   97.997391
H   68.256409   41.582481   92.333557
H    8.124899   41.021935   95.586578
H   14.033510   16.428925   58.220802
H   30.560879   93.284966   98.682014
H   47.343227   60.834694   53.193283
H   71.676819   68.251793    9.656167
H   45.249962   66.846245    2.274775
H   16.734039   35.775192   98.016624
H   95.954170   32.084137   70.086418
H   94.209145   26.546856   98.995842
H   91.927567   53.255013   81.090935
H   76.216400   74.736382   29.690390
H   20.110327   46.957642   98.304695
H   36.836510   52.402966   42.829483
H   63.316166   86.046272   50.170181
