100
TIME:    6.901, STEP:  6901
H   50.635574   89.166206   92.827957
H    9.887798   78.819511   13.234996
H   98.391708   70.389610   42.335094
H   82.634918   48.329681   61.897045
H   33.359421   25.902922   78.591141
H   21.002171   93.731728   62.176235
H   91.288971   27.326038   30.120340
H   77.481300   85.626129   74.567467
H   83.988121   22.790497   65.694878
H   86.268684   15.473061   77.919807
H   58.340820   43.919163   75.009682
H   92.447937   69.602127    1.708838
H    3.699600   44.271442   39.303398
H   13.385115   83.805061   82.409325
H   64.425545   53.601494   19.034031
H   24.049797    8.142323   60.197754
H   69.169716   38.418003    1.613598
H   48.642162   59.036362   60.299683
H   52.748875   67.860565   26.933544
H    6.594284   59.259312   86.184807
H   54.761597   69.201691   69.935707
H   23.985931   53.245163   31.594360
H   93.603905   38.496834   34.905670
H   77.856026   19.384249   94.544952
H   82.765327   38.876518   87.505348
H   15.068462   22.659023   41.468185
H   66.998955   55.612122   36.894840
H   50.254921   78.555061   94.882156
H   61.226509   75.204781   30.957361
H   65.608093   20.040367   31.997795
H   87.653191   40.881561   63.393852
H    1.490726   61.841099   60.403923
H   56.455120   63.572304   19.493536
H   69.685417   41.287186   81.023514
H    9.209028   37.167488   44.914474
H   72.529854   25.944912   97.729897
H   41.694633   51.806274   52.237095
H   78.760674   32.661213    9.426665
H   53.780407   31.054174   75.554260
H   13.196728   66.135696   80.991257
H   63.617096   92.974205    4.929941
H   18.635422   68.665421   32.268772
H   70.677277    4.884989   99.941338
H   38.691135   28.475668   55.478195
H   58.044296   59.611767   46.647648
H   89.045708   94.542862   11.197306
H   95.648727    0.137168   91.707130
H   56.608822   66.448044   95.572723
H   66.750435   60.908100   69.192184
H   70.627197   35.771069    1.013478
H   43.027737    3.396174   26.173237
H   40.515842   23.377487   21.028755
H   52.020947   62.023071    2.068818
H   16.882095   94.605133   36.337601
H   91.326675   63.376602   59.046566
H    2.190946    5.274541   57.700470
H   33.745205   90.420799   12.330057
H   12.193210   25.173391   35.802475
H   34.544083   30.356785   81.694359
H    3.624939   58.222980   67.329735
H   95.020592   57.641685   76.339157
H   53.987953   63.708542   83.105820
H   42.569576   36.371620   60.248169
H   16.918575   79.355759   39.778332
H    6.234435    9.672466   38.229435
H   77.408173   99.204308   54.224823
H   33.888809   86.947632    0.241670
H    3.666399   12.212665   96.110306
H    0.845629   53.924484   27.413792
H   70.195763   95.241631   87.201599
H    2.893736   25.857697   79.368019
H    4.967845   22.483582   61.890648
H   57.033234   76.956558   84.806946
H   78.289619   12.655560   93.120087
H   94.896477   38.480335   24.540947
H   88.800713   49.862843   31.580038
H   93.540619   28.501530   13.131704
H   56.201855   99.480278   95.555199
H   92.441841   33.248310   94.674263
H   61.093399   33.090034   26.393761
H   45.914917    0.675829   92.446091
H   59.141312   89.224762    9.667107
H   54.379921   22.527136   87.159576
H   24.927788    2.692348   33.117352
H   16.307951   17.222984   78.777870
H   92.462753   62.541794   21.009766
H   28.056978    1.593571   52.609703
H   67.016075   52.849583   24.025230
H   98.897324    9.935944   71.749519
H   56.198345   25.349812   70.909256
H    6.440077   46.065361   79.198288
H   88.903015   14.500669   65.013893
H   27.820759   34.583790   52.669502
H   14.221990   31.848475   92.122879
H   37.279076   31.580139   74.664124
H   63.915894   23.218592   11.003416
H   14.833614   63.713943   40.306747
H   24.956797   27.921215   40.343918
H   79.965416   66.602394   67.007118
H   67.857521    1.544776   32.945240
