100
TIME:    5.817, STEP:  5817
H   23.942266   88.573692   93.820389
H   39.823097   20.077917   44.886333
H   79.750534   92.402695   55.063030
H   82.452972   92.989105   21.312923
H   43.068710   39.015625    7.983040
H   37.815617   94.906105   54.823933
H   48.100574   54.130344   45.350056
H   62.681564   91.846695   74.096809
H   10.634972   27.012665   33.927208
H   15.878431   99.906868   35.476810
H   59.171860    0.302390   79.426216
H   33.822525   15.266527   78.868843
H   72.872086    9.824673   47.015312
H   67.057793   87.146248   99.915321
H   51.254723   50.429428   71.155823
H   67.634842    2.952855   50.179413
H   56.338600   66.718803    2.932805
H   25.460615   11.783161   97.878944
H   35.869267   22.383089   69.822891
H   35.796585   82.282021   12.380976
H   19.087685   77.116943   99.361305
H   20.061798   51.806137   23.906967
H    8.077565   47.312935   65.919159
H   78.575264    6.416476   75.052948
H   21.534840   24.842453   79.499733
H   20.029154   54.695457   43.412941
H   60.473427    0.670144   15.383945
H   41.720104   27.957588   59.054230
H   37.656258   76.855835   82.199829
H   24.042545   46.869102   45.823105
H   44.991486   43.676998   49.156410
H   33.046055   91.795395   60.755226
H   80.099236   42.882561   21.838255
H   23.883965   40.629326   26.689638
H   36.177246   19.199015   78.942520
H   78.299606   41.041435    1.137812
H   37.725090   91.503540   66.822182
H   23.565838   52.501575   32.930996
H   99.533356   54.673882   80.601952
H   15.297407   67.616066   95.703636
H   37.700439   55.776390   79.391701
H    9.988965   64.414505   76.926720
H   61.346066   98.382767   21.642406
H    7.909416   10.281088   49.490959
H   52.073490    2.384355   53.886944
H    3.037946   73.867203    6.793391
H   87.179977   41.186722   81.303139
H   56.550076   55.283188   28.500891
H   35.066338   50.685188   12.430863
H   47.877811   19.269812   76.814987
H   43.102169    8.049437   14.747642
H   87.828270   23.964981   92.186104
H   29.534100   55.737671   65.028252
H   41.982346   12.291282   88.505150
H   77.636589   68.379883   49.825222
H    0.840811    6.414804   94.602386
H   65.022896   21.699928    9.232584
H   92.910065   27.544031   63.722885
H   49.050507   84.551308   64.910072
H   75.156097   74.902649   98.161278
H   26.641724    8.055174   60.855679
H   92.461220   73.798264   32.153366
H   68.977699   10.341156   34.581299
H   42.482765   73.450790   69.210739
H   63.211624   96.249710   37.281284
H   43.998375   53.092735   90.129768
H   20.859821   49.470005   47.907425
H   78.545708   50.218052   44.288837
H   46.821537   31.813805   95.399811
H   48.235878   40.720520   89.484192
H   37.317421   99.611908   92.368874
H   94.329178   58.470078   82.515732
H   27.712440   30.573586   12.598709
H    2.156900   81.260643   57.526970
H   42.631794   36.933796   42.366470
H   63.179169   80.388481    4.519764
H   95.100609   22.366823   93.924644
H    5.273570   70.362129   35.691116
H   40.458706   36.432362   82.583138
H   14.253971   92.139717   19.781292
H   24.701693   89.461197   27.657125
H   77.793457   82.194901    0.348486
H   85.812996    4.399836   83.925323
H   50.349449    9.932158   32.123943
H   69.089485   85.028313   83.859543
H   17.411312   22.721439   45.733414
H   55.659004   80.409492    0.920437
H   49.582359   39.591419   35.264519
H   76.402206   70.291023   80.615242
H   52.038273   69.950241   32.161598
H   62.078270   87.532791   56.306194
H    8.697992   32.972870   44.362640
H   58.334366    2.056875   68.842117
H    9.458603   66.083809   19.030291
H   56.019493   28.678165   49.754093
H   74.381927   66.024628   66.993286
H    0.876617    1.506566    2.648086
H   27.049173   74.282562   62.102982
H   31.604462   61.925098   57.803322
H    0.528378   29.361572   37.370754
