100
TIME:    8.644, STEP:  8644
H   32.763176   29.325026   91.232193
H   61.750076   73.270737   23.136452
H   28.353334   95.788406   21.872711
H   82.927475   76.517326   66.357124
H   17.741457   65.611969   31.330021
H   93.972168   91.843407   34.790047
H   99.938896   45.022842   66.425224
H   40.484940   36.417576   14.529847
H   41.141853   55.207336   55.979206
H   38.661720   40.500034   46.168282
H   96.211212   14.052482    7.116041
H   25.923553   56.969616   77.639870
H   92.550369   38.776909   66.089432
H   27.081793   78.432655   15.051800
H   85.596016   97.908150   35.210655
H   53.967010   55.693138   15.513199
H   29.008064   53.703175   60.285774
H   85.908737   74.221977   99.883865
H   79.897949   40.980434   18.761799
H   59.628727   22.249128    4.856300
H   51.329506   95.679230   22.631613
H   91.089043   55.559021   83.161850
H   70.332344   24.324732   85.034836
H   15.905310   40.235565   65.096634
H   20.425377    0.646904    0.377664
H    6.849709   71.278366   77.443695
H   16.696791   83.156570   71.480148
H    3.186609   59.912403   52.498589
H   99.125908   33.342953   48.565086
H   32.441582   76.900314   70.561859
H   56.252995   97.180336   25.493309
H   11.544680   13.688755   99.045723
H   79.229019   36.045723   76.516739
H   43.332108   81.551727    7.593967
H   65.830421    5.197904   50.961376
H   24.045473   62.467377   92.251106
H    8.871419   87.972420   89.578819
H    6.720591    0.760732   32.424194
H   80.206535   93.080406    6.644821
H   49.024879    2.960513   18.126123
H   44.494980   52.777214   45.993374
H   71.744629   75.500610   21.252769
H   85.677460   15.340569   25.838497
H   27.395679   57.735962   25.899158
H    6.853200   90.849358   95.801201
H   66.545433   27.782715   18.278509
H    9.271962   94.927681    8.441055
H   56.715206   84.400391    3.419240
H   17.704132   16.554550   99.660156
H    7.221415   62.300648   79.144646
H   42.908054   35.121468   44.549011
H   25.227568   61.640797    6.611234
H   88.169411   72.129578    0.841986
H   76.514832   66.173935   13.252299
H   52.546944   16.123449   73.865021
H    4.361851    3.441074   98.364624
H   44.243362   40.127632   78.103737
H   82.405945   60.568153   90.904686
H   72.010674    4.007823   47.886337
H   88.604195   92.194229   17.754662
H    4.970356   76.584351   40.441433
H   92.125450   47.484940    4.240242
H   60.903034   17.431833   40.725433
H   36.607677   88.850555   92.453598
H   75.419479   70.462921    0.546568
H   70.334358   12.554446   57.285099
H   94.043777   47.206768   84.394028
H   83.265457   11.896741   79.435791
H   87.717590   28.683617   18.095490
H    5.580040   82.809830   83.509827
H   47.543125    7.261896   58.463509
H   61.453880   64.585350   89.647751
H   43.386551   90.743645   40.118313
H   39.919842    2.341669   89.556923
H   78.861572   41.043049   56.695515
H   30.006662   61.573555   14.298207
H   51.842606   77.640625   44.045578
H   38.087086   85.515312   91.822449
H   76.023628   28.128567   14.123270
H   75.615623   38.140251   76.232933
H   80.035957   18.708506   96.623016
H   89.935104    0.528633   63.845848
H   64.627861   51.676426   53.154644
H   44.842323   51.845192   73.920891
H   31.439896    8.187319    9.814739
H   52.352016   26.561600   42.048889
H   44.468067   74.862938   35.722542
H   95.048332   13.372341    5.953013
H   35.073490   12.888464   57.494026
H    2.092581   53.640182   33.219521
H   77.770775   40.181179   16.007591
H   17.867365   45.590546   98.232384
H   39.550480   86.879143   87.458374
H   82.674362   37.594349    9.650206
H    7.140291   75.453232   14.716578
H    7.880598   54.389587   20.975319
H   76.482384   63.740166   40.064568
H   21.592394   14.165799    5.351725
H   96.932976   74.129082   21.011562
H   76.122726   56.812611   65.037125
