100
TIME:    6.956, STEP:  6956
H   46.916092   84.122414   92.777603
H    8.368996   81.799629   16.702919
H   99.337524   74.346596   41.689304
H   82.644150   46.063751   58.882099
H   32.866791   30.311415   77.099823
H   20.149090   93.672142   67.623001
H   88.406204   31.040066   34.421413
H   73.158409   90.384583   69.517799
H   82.636116   17.502487   62.232822
H   84.766457   16.262850   80.073280
H   53.224854   46.132221   69.711601
H   90.349014   72.359009   97.793892
H    0.189921   40.945141   33.838310
H   10.661907   83.635536   86.594582
H   65.093575   48.688622   16.389187
H   21.838207    3.331732   55.632324
H   64.746956   42.055660    6.620476
H   49.818348   56.360046   58.393364
H   53.605312   70.167618   29.830997
H    5.112617   58.091518   89.929466
H   51.497818   63.726509   68.442711
H   29.258835   53.318176   26.910599
H   92.869576   38.049522   33.332108
H   72.745934   20.042208   90.460403
H   80.798164   34.514603   87.911537
H   14.809139   21.037834   36.292213
H   62.256290   53.325630   37.986263
H   45.614380   81.122276   96.699936
H   62.422417   80.194862   28.357626
H   67.717087   18.679131   36.370201
H   89.817574   45.813316   59.042427
H    4.963419   60.321667   55.312294
H   60.329441   59.548180   24.448370
H   72.009254   36.246750   78.706390
H    7.840140   33.003212   48.260918
H   77.310966   30.252907   97.557014
H   46.969635   49.792114   56.570896
H   76.487190   31.654552   13.307700
H   51.458668   29.855959   70.224289
H    8.016350   60.986752   85.318344
H   59.858170   94.861641    6.225612
H   14.000290   68.881104   35.076427
H   71.150604    5.214912    3.913960
H   35.179363   29.398825   60.855583
H   53.273674   57.441929   51.354069
H   88.335716   95.591904   11.420752
H   96.078415    3.128371   92.235008
H   56.612179   67.014526   98.975815
H   68.358406   56.353161   66.998428
H   71.781982   36.608204   97.168037
H   43.023960   98.086227   26.752937
H   43.189220   18.273689   17.418373
H   53.161884   62.341980   98.874550
H   15.608559   93.707993   38.764664
H   86.947556   68.196373   59.514439
H    2.259449    5.216686   55.828140
H   37.231800   88.833809   17.561073
H    8.097856   19.979166   34.385849
H   38.881660   32.681042   77.472176
H   99.995567   62.450619   65.765404
H   98.489983   55.084122   72.050674
H   52.035896   63.196609   80.617493
H   46.303745   32.618568   56.476654
H   20.695335   79.655365   38.284916
H    8.417533    5.279676   43.351276
H   74.029419   96.470085   57.476852
H   29.476000   88.849335    2.897187
H   99.867088   15.358321   98.739624
H    3.586912   49.972534   23.964123
H   71.310265   98.007744   87.085785
H    1.147154   22.115555   78.708382
H    0.441564   20.653423   65.921486
H   53.447189   74.236603   83.397034
H   77.078606    9.174629   89.852112
H   97.548454   38.558804   28.710468
H   90.100685   53.388042   27.879229
H   98.535736   23.740978   14.107103
H   58.785854   95.884163   98.592384
H   95.079552   33.086758   95.287743
H   58.396103   30.093838   21.655449
H   46.991234    1.244961   95.733368
H   63.268242   89.581436    5.065834
H   57.858963   23.446936   92.397232
H   28.711681    7.398874   28.094120
H   13.629957   13.782479   73.446220
H   91.197189   64.562134   24.829117
H   31.730303   97.594597   55.232307
H   67.900627   48.448223   23.454971
H    0.038684    6.873686   71.299690
H   51.335407   23.086819   72.875580
H    8.690937   49.034988   80.359787
H   92.972458   18.637077   66.062096
H   31.346378   36.234142   56.922737
H   19.537449   35.185265   95.831451
H   36.328224   26.653419   75.928009
H   68.458664   21.046865    8.162506
H   10.468027   66.870300   37.143677
H   24.850634   30.642639   39.239906
H   77.345329   66.839897   62.400417
H   71.274040    0.133439   27.646740
