100
TIME:    2.433, STEP:  2433
H   52.788239   98.902916   96.918533
H   33.591972   36.658051   31.472830
H   21.575880   48.943512   94.776726
H   81.884979   32.411522    6.801470
H   73.378891   67.773193   99.736938
H   90.290413   98.572243   19.693739
H   25.457306   25.625191   80.716621
H   28.657295   99.088104   84.804039
H   93.820152   52.370392   46.938824
H    8.353697   51.317635    2.961760
H   73.943298   64.139557    5.390963
H   62.982109   45.644287   19.745340
H   88.499245   14.507681   83.308372
H   34.613289   97.576668   42.392941
H   10.094166   52.701721   33.819870
H    3.698218   98.929901   31.081758
H   28.457870   42.895180   94.872269
H   53.136833   76.383781   15.197170
H   83.159370   80.421082   91.542984
H   26.969673   54.145252   81.982613
H   19.898956   14.004101   91.207779
H   95.634430   47.313828   12.085815
H   53.259972   74.834785   62.739380
H   92.989426   65.861725   26.377983
H   42.565300   93.215118   54.512856
H   35.503033   55.111683   61.125839
H   52.279076   41.340458   48.246609
H   27.252729   70.003929   47.194630
H   64.074005   69.832802   42.162468
H   94.286003   30.623489   76.805260
H   11.810388   40.226269   16.889038
H   19.378120   85.290871   74.029076
H   41.734982   90.472801   16.980810
H   80.900978   50.752792   69.252686
H   20.294003   75.003937   72.880287
H   84.094101   75.609978   12.276212
H   13.155709   15.434164    0.176327
H   63.428612   14.423252   94.132103
H   42.375877   28.404745    8.536684
H   34.032269   84.414055   29.457197
H   68.971291   39.665234   99.664963
H   12.957031   21.051704   17.105825
H   32.197689   78.089920   77.210991
H   23.995405   53.548950   18.620169
H   45.610577   35.896900   64.309425
H   46.698521    9.322529   93.048958
H   60.739300   57.152679   48.812195
H   56.369350   20.433348   19.118141
H   36.148430   30.948322   47.421585
H   76.912895   67.779320   13.498028
H   43.358997   34.753456   79.070007
H   23.371622   37.974834   14.339336
H   59.349754   36.116089   61.566231
H   20.351444   67.513634   39.177338
H   47.069740   71.795578   21.050795
H   96.610458    9.974983    9.801743
H   50.492466   19.344109   87.385918
H   44.890472   47.120972   50.887650
H   82.162254   41.569424   24.700148
H   98.466797   14.795912   94.410286
H   13.175926   65.424263   24.700222
H   12.561325    5.297138   85.268967
H   39.261646   41.241295   66.644943
H   10.108683   55.029411   61.087887
H   28.891354   66.525421   22.141394
H   51.882149   21.321266   90.043297
H   92.363991   32.478420   84.527115
H   12.301937   56.683228   82.514069
H   78.163231   74.966469    7.638087
H   79.675842   70.517159   96.609924
H   44.774284   29.858728   32.964832
H   73.354492   70.778519   34.754341
H   48.355789   97.961632   99.362053
H   76.648094   95.414032   58.608131
H   79.475609   32.105854   85.835556
H   83.176064   63.506645   32.219906
H   87.855652   15.670275   34.078815
H   46.287090   91.632668   48.806400
H   78.183151   46.372242   44.824303
H   80.206398   76.448563   11.316030
H   58.494083   54.452160   25.403194
H   23.873970   60.116898   83.331276
H   71.738083   47.867035   61.631107
H   17.538174   20.356539   41.202148
H   33.863144   96.697922   11.900304
H   95.293457   98.421837   10.738179
H   29.649298   26.454010   39.558212
H   95.121658   10.502558   70.444191
H    6.173653   58.706490    8.294815
H   51.229107    9.173775   11.192456
H   23.591034    4.807289   84.842239
H   58.307858   78.485649   79.881660
H   41.389545    0.535353    7.138467
H   82.386604   60.813541   90.863365
H   14.525581   31.796356   71.994652
H   94.877380   99.655464   41.781448
H   69.482285    7.305415   97.265236
H   15.798280   36.953217   17.106335
H   92.811089   47.338001   41.249069
H   90.338821   16.209717   63.353058
