100
TIME:    9.391, STEP:  9391
H   82.247223   60.822121   90.548294
H   41.119125   13.747742   70.238701
H   41.193539   49.529793   13.104086
H   83.052856   45.741875   25.409464
H   11.047796   25.487045   11.077717
H   82.391479   91.034126    8.767718
H   60.786152   95.462532   24.841610
H   81.772217    1.043520   45.943771
H   22.779167   83.385529    8.956854
H   18.256815   51.225849   75.416359
H   26.727081   44.108231   35.158699
H   97.411186   94.413078   24.467133
H   44.916809   93.564186   91.855957
H   90.095734   76.130196   71.900108
H   94.669075   31.182411   99.288597
H   23.931683   90.357651   53.505920
H   68.938637    3.113393   28.288130
H    1.887823   37.872749   73.986893
H   91.535629   72.318588   58.114483
H   39.505001    6.385523   55.715538
H    7.001167   21.313757    2.355977
H   62.704662   56.550674   19.547852
H   60.358818   18.252279   63.662994
H   46.498852   49.171844    9.616430
H   93.709091   41.407616    5.891780
H    3.326136   49.256821    7.146672
H   52.283119   52.105373   86.297958
H   40.156303   94.779846   77.189995
H   15.369586    1.117306   13.254620
H   61.085548   58.412247   29.945724
H   85.650749   64.163879   66.393066
H   58.710773   93.049515   29.892143
H   31.846657   81.392380   43.812401
H   74.894043   13.093506   76.123772
H   47.239769   48.639503   96.408096
H   88.981323   20.976126   89.903053
H   80.517761   60.616463   48.439350
H   75.843452   87.093895   85.137993
H   48.676022   76.803612   34.254364
H   78.665771   33.029144   76.899612
H   93.443604   78.409531   63.592373
H    8.791569   78.429977   59.386639
H   92.106110   19.822746   79.794090
H   79.701942   70.276955   98.936592
H   42.056084   61.384205   59.727116
H   56.906654   42.029766   21.313311
H   15.112174   35.554050   15.614870
H   56.760799   92.094254   49.639027
H   39.537605   54.686810   69.864960
H   22.900595   73.675316   26.913795
H   43.572056   63.058037   51.326996
H   61.531734   92.323822   57.575417
H    3.660668   76.460938   57.459190
H   59.213768   53.984451   46.214607
H   93.069099   81.587448   80.213882
H    5.292238    2.655303   72.934982
H   91.600983   18.573418   49.149742
H   26.782434   90.022758   71.664330
H   30.927143   35.573021   90.538246
H   39.309338   49.612385   96.508217
H   52.094723   41.845921   82.203468
H   65.612968   40.531967   70.443733
H   11.615230   66.458031   89.501404
H   87.903137   92.919754   72.175995
H    5.067019   10.799053   70.111534
H   24.445210   75.419212    1.453614
H   34.111435   73.031647   20.459793
H   31.665283   54.618965   15.146713
H   24.947817   75.008972   71.246674
H   20.751312   20.330599   81.925461
H   23.818516   56.435421   49.504433
H   99.941734   39.782616   44.401974
H   94.681198   53.791882   20.963444
H   23.477772   55.062702   45.171883
H   14.844888   42.142986   13.333431
H   47.668350    9.447360   64.032761
H   19.685951   12.984882   57.296120
H   73.178291   36.673531   33.079918
H   11.847001   25.934391   22.460817
H   38.981438   97.446449   11.878136
H   94.659996   26.436563   41.270699
H   45.988670    5.377904    1.353248
H   11.874704   64.168983   24.294262
H   96.235207   15.767302    5.695255
H   95.067871   61.455315   37.401443
H   35.157658   54.002480   93.922623
H   94.358498   20.549965   71.342278
H    7.061647   53.599220   98.209305
H   50.575199   71.296486   51.384529
H   36.048199   22.904625   59.920074
H    8.341400   80.516449   31.782860
H   73.137802    1.772782   12.464196
H   87.434799    9.290541   45.225029
H   54.152870   82.858932   61.116512
H   94.224792    8.540394   31.879698
H   69.579681   24.891436   82.391434
H   17.189060    6.609010   97.102722
H   20.150507   51.126209   90.352562
H   61.347435   77.354805   58.443806
H   22.522995   37.646343   93.074783
