100
TIME:    2.981, STEP:  2981
H   15.729580   48.648399   96.416824
H   18.348381   66.371429   66.040573
H   30.995466   88.369476   88.346489
H   81.976959    9.832563   76.765198
H   68.470505   11.697797   84.877991
H   81.794807   97.978554   73.964867
H   96.736763   62.630409   23.571022
H   85.585571   46.495792   34.488537
H   80.349266   99.682281   12.443228
H   93.378853   59.186104   24.422251
H   22.969666   86.189667   52.603947
H   42.065025   73.112854   80.738441
H   53.640076   81.352646   28.842079
H    7.479524   95.887581   84.095482
H   16.760624    3.752639    7.477587
H   81.664536   50.999969   85.592140
H   84.392799   79.140213   44.760540
H   64.847252   49.734673   96.197449
H   91.696785    3.408264   20.413492
H   12.206886   42.509785   19.292933
H   87.379959   59.450241   76.332108
H   48.171722   48.041306   65.418594
H   45.943382   70.377937   47.060974
H   42.074326   72.434113   85.678642
H   22.966167   49.751770   58.555794
H   32.990307   38.785236    9.762604
H    5.023464   18.559923   59.121151
H   81.013481   95.582726   65.310204
H   75.989594   19.551657   16.258833
H   15.298442   17.060623   20.369423
H   33.375736   89.367661   73.531715
H   53.979317   70.147621   23.297935
H   80.335541   50.377892   66.348976
H    4.055039    0.531982   46.165710
H    6.671178   33.579498    6.251525
H   31.741104   18.657587   10.392713
H   65.714790   95.364243   43.356380
H   40.780632    4.393442   32.802288
H   19.242912   16.466162   55.431061
H   82.416260   33.111794   72.573952
H   31.521021   58.466778   12.577043
H   63.705864   45.647987   42.850647
H   36.917934   81.376114   16.794670
H   89.002518   62.734406   72.199669
H   98.076256   14.277340   11.202987
H   39.628605   19.774799   95.273201
H   65.023727   86.954193   54.075958
H   56.398617   26.075483   53.025307
H   52.165489   85.563164   25.560232
H   88.402031   76.116051   75.168854
H   43.317188   81.847000   84.848022
H   50.003330   87.124741   78.365227
H   70.715172   39.293579   29.737125
H    7.662388   58.572311   63.359711
H    3.441041   19.831177   25.702833
H   97.296127    9.399063   91.146530
H   85.234184    3.531097   39.505424
H    4.085114   95.368637   36.772903
H   25.382057   64.723297   82.630623
H   62.302139   56.918560   78.823860
H   47.744728   39.941395   81.973373
H   93.113091    0.195395   60.475586
H   76.441170    3.864670   29.054367
H   47.739822   58.010399   46.208035
H   50.644321   22.756176   73.176582
H   18.217476   94.078590   22.444405
H   48.397560   51.422115   10.984649
H   74.447655   88.023315    8.711638
H    5.473621   35.590675   73.270302
H   90.780334   98.077705   95.455994
H   27.372787   92.572136   26.390049
H   28.170378   52.591568   74.877380
H   12.624613   70.852623   85.314201
H   64.590355   60.737183   26.038857
H    5.898366   32.887684   27.378342
H   96.128517   98.626335   95.346497
H   37.610340   68.174454   43.770161
H   72.033127   55.801327   79.069916
H    4.463759   44.762592   50.940971
H   53.331520   46.602802   64.105392
H   69.216080   60.121471   58.156010
H   64.993103   63.695755   37.508522
H    6.406775   57.014862   13.825304
H   55.237423   67.249603   91.148834
H    7.178972   62.422642   58.777901
H   82.683838   18.550697   48.792950
H   66.248970   86.609932   65.688889
H    3.942442   66.628342   64.741432
H   17.547012   28.194483    3.811348
H    2.777545   86.628616   30.781845
H   46.017426   34.397442   96.414993
H   98.854889   19.694292   90.325569
H   76.542526   16.961172   49.529747
H   35.352879   94.052162   27.812553
H    5.049716   82.709869   84.587547
H   40.139984   78.015083   13.476606
H   25.984406   38.753918   65.749550
H   17.809401   41.619110    8.337793
H   66.705498   49.700214   95.346367
H   24.372629    2.137842   10.570020
