100
TIME:    5.818, STEP:  5818
H   23.874643   88.481987   93.819473
H   39.795479   20.132109   44.949390
H   79.767731   92.474640   55.051289
H   82.453140   92.947906   21.258110
H   43.059753   39.095779    7.955927
H   37.800106   94.905022   54.922970
H   48.048168   54.197872   45.428257
H   62.602966   91.933212   74.004997
H   10.610390   26.916519   33.864258
H   15.851114   99.921227   35.515965
H   59.078842    0.342626   79.329887
H   33.784355   15.316650   78.797661
H   72.808273    9.764198   46.915947
H   67.008278   87.143166   99.991417
H   51.266884   50.340103   71.107758
H   67.594635    2.865390   50.096405
H   56.258186   66.784950    3.023839
H   25.482000   11.734505   97.844276
H   35.884838   22.425043   69.875580
H   35.769646   82.260780   12.449060
H   19.028343   77.017395   99.334160
H   20.157669   51.807465   23.821808
H    8.064212   47.304802   65.890549
H   78.482353    6.428439   74.978683
H   21.499077   24.763145   79.507118
H   20.024595   54.665894   43.318909
H   60.387192    0.628574   15.403788
H   41.635731   28.004265   59.087288
H   37.678001   76.946564   82.152557
H   24.080887   46.844353   45.902603
H   45.030846   43.766666   49.077293
H   33.109196   91.767761   60.662651
H   80.169670   42.809395   21.928343
H   23.926220   40.537682   26.647512
H   36.152390   19.123419   79.003418
H   78.386536   41.119759    1.134667
H   37.820999   91.466919   66.900978
H   23.524509   52.483273   33.001560
H   99.491150   54.652092   80.505043
H   15.203218   67.522453   95.782310
H   37.632095   55.810699   79.415260
H    9.904689   64.418427   76.977776
H   61.354679   98.388763   21.714638
H    7.845564   10.297873   49.588730
H   51.986752    2.344902   53.972515
H    3.025042   73.886276    6.797453
H   87.187790   41.241104   81.312737
H   56.550129   55.293488   28.562765
H   35.095566   50.602371   12.390971
H   47.898785   19.285032   76.745041
H   43.102100    7.952891   14.758183
H   87.876869   23.872189   92.120461
H   29.554844   55.743469   64.970177
H   41.959190   12.274964   88.549278
H   77.556969   68.467514   49.833729
H    0.842056    6.413752   94.568344
H   65.086296   21.671074    9.327694
H   92.835602   27.449591   63.697128
H   49.129372   84.593559   64.833305
H   75.090103   74.979507   98.132835
H   26.704807    8.008671   60.777714
H   92.425728   73.788956   32.108116
H   69.045586   10.272917   34.512726
H   42.551437   73.456238   69.183594
H   63.251320   96.169846   37.374409
H   43.936943   53.043022   90.188896
H   20.779587   49.504574   47.955704
H   78.476631   50.275242   44.336643
H   46.871380   31.741951   95.337097
H   48.256134   40.770821   89.482086
H   37.285667   99.543869   92.356880
H   94.246719   58.436890   82.588943
H   27.647236   30.524124   12.573067
H    2.134889   81.197350   57.467552
H   42.680004   36.935223   42.442276
H   63.202812   80.452568    4.452477
H   95.191399   22.280149   93.942329
H    5.320551   70.296745   35.746346
H   40.506657   36.429424   82.594292
H   14.204931   92.085243   19.695141
H   24.721262   89.471542   27.716890
H   77.868515   82.201385    0.264834
H   85.876244    4.416558   84.020554
H   50.418243   10.017731   32.032612
H   69.040794   84.965767   83.762604
H   17.388294   22.758171   45.802856
H   55.725792   80.336784    0.968122
H   49.598442   39.511395   35.254150
H   76.422958   70.235344   80.607063
H   51.949856   69.909103   32.197342
H   62.119194   87.586792   56.327312
H    8.771982   33.048080   44.381691
H   58.398468    2.086881   68.919449
H    9.555246   66.144478   19.097719
H   56.002205   28.588589   49.777073
H   74.464523   65.985138   66.941635
H    0.797243    1.563952    2.590573
H   27.047243   74.332047   62.082909
H   31.556824   61.929409   57.719559
H    0.590490   29.335911   37.274418
