100
TIME:    3.890, STEP:  3890
H   54.257233   65.288513   95.584610
H   93.062096   15.653627   23.379683
H   46.620293   53.765984   77.680275
H   82.129532   72.382011   26.938490
H   60.328674   84.558159   60.230576
H   67.702644   96.993767   63.986717
H   49.094662   24.008739   94.655998
H   14.139969   25.136578   51.027691
H   58.004311   12.285830   55.226299
H   68.537254   72.237999   60.020218
H   38.416702   22.764881   65.044044
H    7.368622   18.675989   16.034632
H   95.819931   26.357147   38.494659
H   62.470879   93.085793   53.271679
H   27.818672   22.556786   63.785526
H   45.116455   71.495415   10.137033
H   11.296527   39.263615   27.510397
H   84.265587    5.529858   64.684265
H    5.856531   41.544380   68.301117
H   87.715508   23.207766   81.181938
H   33.438599   68.956299   51.660423
H   35.318436   49.248016   88.008865
H   33.806923   62.985100   21.052814
H   57.618355   83.336121   18.167477
H   90.455963   77.663345   65.268349
H   28.819654   11.701270   24.561174
H   26.639433   80.775101   77.154335
H    4.315467   38.011749   95.353142
H   95.754684    2.023524   73.290016
H   50.152725   94.561882   92.632812
H   69.153023   70.878639    1.614525
H   11.374116   45.033859   39.147255
H   44.364063   83.871666   48.238876
H   42.463715   17.227333    7.872162
H   84.075851   64.865929   61.600716
H   10.782648   90.065338    7.259319
H   52.900101   62.075668   14.981948
H    3.212499   87.761391   96.948769
H   80.874939   96.662346   67.342369
H   96.799187   48.014854   44.091633
H   69.397873   89.659714   33.992413
H   82.010086   86.443481   85.557114
H   44.747684   86.827118   82.452202
H   30.955629   77.964508   61.077271
H   19.227324   78.411011   88.988220
H   27.901318   37.112598   98.962685
H   72.125290   36.389854   62.807274
H   56.447163   35.435699    9.269035
H   78.737778   10.280457   89.300262
H    7.462443   89.944679   11.593395
H   43.247837   94.088753   94.432358
H   94.180038    2.775928   18.690189
H   89.564827   44.564270   76.945015
H   86.609886   43.738091    3.472155
H   31.066177   99.497986   33.432667
H   98.433487    8.442221   60.202026
H   42.860348   77.302299   25.958929
H   36.398430    9.524950   13.357374
H   97.073586    3.130191   12.845318
H    2.319894   26.786314   52.969734
H    5.084457   97.670067   11.101507
H   60.850914   91.734512   19.343391
H   38.152378   41.836845   66.721489
H   10.158358   62.955139   21.525944
H   86.723381   50.156643   57.827961
H   62.376289   48.889351   76.190964
H   75.466385   82.849304   54.871746
H   11.656961   40.011002   52.167095
H   50.780403   70.275742   16.257809
H    9.198191   43.798691   93.541901
H   98.506493   30.724667   15.484573
H   53.218208   22.423798   41.429462
H   53.356430   25.891186   62.011604
H   44.578060    3.212029   72.023582
H   49.723095   34.184551   96.285927
H   17.618158   56.886322   34.182125
H   20.141390   89.387253   59.845768
H   14.739604   96.362617   29.269899
H   48.051376   42.092571   61.087051
H    8.752289   97.095604   85.794304
H   86.997726   69.525497   12.485307
H   33.196060   69.632217   61.498169
H   63.919430   72.188904    0.403286
H   17.776373   45.034981    8.126086
H   62.918655    5.561914   70.660568
H   61.766773   51.941902   11.916713
H   26.959036   20.518242    9.033625
H   18.572077   93.851601   55.288322
H   36.413193   77.583397   96.375618
H   22.410032   49.231712   63.273010
H   83.217407   83.480034   15.611489
H   66.117035   88.051323    7.648432
H   34.809944   44.237000   19.824198
H   23.210812   49.190628   89.101280
H   89.333870    1.286290    5.475669
H   15.219680   42.118904   66.525352
H   53.832306   90.919884   13.471472
H   21.145193   49.358704   93.790871
H   23.402611   53.618557   19.208282
H   80.833504   78.808662   23.003683
