100
TIME:    6.992, STEP:  6992
H   44.481522   80.821022   92.744644
H    7.374848   83.750252   18.972832
H   99.956604   76.936623   41.266605
H   82.650192   44.580597   56.908680
H   32.544342   33.196972   76.123688
H   19.590710   93.633141   71.188065
H   86.519302   33.471066   37.236660
H   70.328880   93.499207   66.212563
H   81.751167   14.041205   59.966618
H   83.783180   16.779757   81.482826
H   49.876221   47.580769   66.243767
H   88.975174   74.163513   95.231331
H   97.892982   38.767567   30.261036
H    8.879444   83.524574   89.334023
H   65.530830   45.472923   14.658016
H   20.390621    0.182985   52.644043
H   61.852058   44.436672    9.897698
H   50.588215   54.608276   57.145592
H   54.165890   71.677689   31.727512
H    4.142799   57.327145   92.380516
H   49.361526   60.142494   67.465477
H   32.710190   53.365967   23.844864
H   92.388924   37.756737   32.302139
H   69.401146   20.472872   87.786880
H   79.510567   31.659531   88.177406
H   14.639400   19.976692   32.904305
H   59.151829   51.829018   38.700649
H   42.576935   82.802635   97.889755
H   63.205193   83.461098   26.655981
H   69.097519   17.788139   39.232140
H   91.234261   49.041374   56.194221
H    7.236456   59.327129   51.979591
H   62.865360   56.914207   27.691534
H   73.530312   32.947556   77.189728
H    6.944170   30.277504   50.451317
H   80.440422   33.072632   97.443855
H   50.422363   48.473755   59.407566
H   74.999092   30.995647   15.848014
H   49.938984   29.071672   66.735580
H    4.625557   57.616421   88.150620
H   57.397781   96.097054    7.073688
H   10.966347   69.022278   36.914165
H   71.460419    5.430862    6.514217
H   32.880749   30.003073   64.375359
H   50.151085   56.021671   54.434635
H   87.870995   96.278549   11.567007
H   96.359665    5.086246   92.580528
H   56.614376   67.385315    1.203266
H   69.410896   53.371746   65.562515
H   72.537842   37.156147   94.651070
H   43.021488   94.610703   27.132378
H   44.939068   14.933022   15.055242
H   53.908680   62.550720   96.783852
H   14.774971   93.120773   40.353287
H   84.081223   71.351097   59.820683
H    2.304287    5.178818   54.602615
H   39.513935   87.795052   20.984962
H    5.417260   16.579309   33.458603
H   41.720802   34.202374   74.708565
H   97.619774   65.217682   64.741478
H    0.760881   53.410080   69.243668
H   50.758186   62.861526   78.988770
H   48.747929   30.161922   54.008026
H   23.167397   79.851471   37.307407
H    9.846442    2.404382   46.703754
H   71.817871   94.680412   59.605453
H   26.587557   90.094086    4.635338
H   97.380333   17.417295    0.460632
H    5.381216   47.385803   21.706158
H   72.039757   99.818291   87.009979
H    0.003933   19.666153   78.276619
H   97.479073   19.455502   68.559853
H   51.099960   72.456268   82.474182
H   76.285942    6.896219   87.713074
H   99.283958   38.610523   31.439732
H   90.951576   55.695446   25.456881
H    1.805321   20.624981   14.745546
H   60.477200   93.530342    0.580423
H   96.806053   32.981014   95.689293
H   56.630600   28.132641   18.554008
H   47.695732    1.617483   97.885040
H   65.969704   89.814896    2.054092
H   60.136154   24.048986   95.825516
H   31.188412   10.479509   24.806187
H   11.877089   11.530488   69.956413
H   90.368820   65.884338   27.329056
H   34.134663   94.977104   56.948921
H   68.479607   45.567333   23.081711
H    0.785859    4.869299   71.005257
H   48.152393   21.605587   74.162628
H   10.164204   50.978745   81.120041
H   95.636093   21.344521   66.748192
H   33.654057   37.314373   59.706673
H   23.016682   37.369347   98.258881
H   35.705849   23.428658   76.755280
H   71.432114   19.625372    6.303001
H    7.610552   68.936279   35.073303
H   24.781145   32.423901   38.517281
H   75.630363   66.995354   59.384945
H   73.510307   99.209518   24.178631
