100
TIME:    6.101, STEP:  6101
H    4.736977   62.529381   93.560379
H   31.979473   35.468327   62.794506
H   84.634384   12.834472   51.728405
H   82.500641   81.288666    5.745564
H   40.524948   61.779480    0.283013
H   33.410618   94.598427   82.949028
H   33.217182   73.307182   67.559227
H   40.359726   16.416462   48.020832
H    3.653702   99.707001   16.050337
H    8.120390    3.984985   46.596561
H   32.754868   11.729425   52.069801
H   22.982285   29.502033   58.653084
H   54.749405   92.650398   18.795586
H   52.995598   86.270882   21.528599
H   54.708519   25.061440   57.504276
H   56.216080   78.113197   26.604946
H   33.501076   85.504509   28.786444
H   31.534010   97.964584   88.033241
H   40.291599   34.298035   84.786453
H   28.145798   76.249794   31.717035
H    2.234733   48.844051   91.652016
H   47.289154   52.183151   99.721802
H    4.285480   45.003181   57.793854
H   52.187634    9.813936   53.960789
H   11.377961    2.319107   81.597145
H   18.734522   46.299309   16.707150
H   35.982674   88.865616   21.019598
H   17.757393   41.213753   68.441727
H   43.831490    2.622740   68.774658
H   34.931828   39.840172   68.400620
H   56.169739   69.143227   26.687233
H   50.978062   83.947433   34.463905
H    0.102659   22.103964   47.423218
H   35.884148   14.602378   14.725939
H   29.117538   97.730293   96.236481
H    2.987442   63.285271    0.244666
H   64.963356   81.103149   89.200356
H   11.827917   47.303547   52.971249
H   87.546906   48.485649   53.079918
H   88.547379   41.028194   18.048021
H   18.291477   65.520592   86.082619
H   86.054855   65.528214   91.426598
H   63.792324    0.085861   42.155556
H   89.774536   15.047934   77.258873
H   27.439529   91.178299   78.189194
H   99.372856   79.284073    7.947184
H   89.398727   56.631302   84.028908
H   56.565243   58.208298   46.073215
H   43.367149   27.165138    1.101514
H   53.834202   23.592474   56.951012
H   43.082668   80.631149   17.741230
H    1.630331   97.611923   73.543404
H   35.425488   57.384399   48.532932
H   35.406265    7.657149    1.037538
H   55.024406   93.267151   52.241146
H    1.194547    6.116063   84.934357
H   83.028572   13.505122   36.243401
H   71.762604    0.723011   56.407944
H   71.448898   96.550758   43.108253
H   56.414604   96.730469   90.083641
H   44.556721   94.847672   38.713680
H   82.381508   71.154831   19.302383
H   88.257423   90.961464   15.106567
H   61.985664   74.997849   61.500744
H   74.483200   73.568192   63.728611
H   26.552059   38.974205    6.922283
H   98.073380   59.287540   61.618607
H   58.927971   66.459999   57.865681
H   60.976902   11.407372   77.589142
H   53.988594   55.005890   88.886169
H   28.298969   80.288849   88.962746
H   70.910965   49.044724    3.308039
H    9.194328   16.526558    5.316269
H   95.904366   63.285389   40.652336
H   56.323475   37.338978   63.895279
H   69.892021   98.589165   85.409393
H   20.885857   97.751564   98.947166
H   18.616405   51.791672   51.376205
H   54.076717   35.598164   85.750923
H    0.326776   76.669136   95.314659
H   30.259401   92.399307   44.631153
H   99.109924   84.036636   76.592247
H    3.775737    9.149011   10.971346
H   69.887672   34.235252    6.185616
H   55.261299   67.265312   56.328842
H   10.874233   33.153366   65.455154
H   74.626717   59.760384   14.462729
H   54.149864   16.865122   32.319908
H   82.295761   54.478096   78.292488
H   26.928049   58.266071   42.312813
H   73.700706    2.868806   62.303753
H   29.711115   54.332672   49.773010
H   76.539383   10.578664   90.804276
H   36.905560   83.313789   38.180008
H   51.109642    3.238428   56.280338
H   97.839142   54.809540   52.324402
H   78.333794   17.804243   86.315048
H   26.500986   88.336090   56.402267
H   18.075287   63.149311   34.014595
H   18.168322   22.073715   10.011346
