100
TIME:    5.841, STEP:  5841
H   22.319311   86.372765   93.798416
H   39.160255   21.378515   46.399700
H   80.163254   94.129379   54.781231
H   82.457001   92.000336   19.997402
H   42.853745   40.939331    7.332329
H   37.443363   94.880104   57.200825
H   46.842823   55.751011   47.226887
H   60.795212   93.923111   71.893318
H   10.045006   24.705170   32.416405
H   15.222822    0.251492   36.416508
H   56.939438    1.268059   77.114326
H   32.906448   16.469501   77.160469
H   71.340591    8.373287   44.630547
H   65.869438   87.072273    1.741778
H   51.546593   48.285629   70.002258
H   66.669876    0.853691   48.187225
H   54.408669   68.306328    5.117620
H   25.973860   10.615406   97.046913
H   36.242985   23.389986   71.087418
H   35.150040   81.772255   14.015009
H   17.663490   74.727783   98.709816
H   22.362701   51.837997   21.863144
H    7.757102   47.117744   65.232513
H   76.345406    6.703585   73.270599
H   20.676533   22.939072   79.676979
H   19.919748   53.985924   41.156166
H   58.403786   99.672501   15.860157
H   39.695141   29.077827   59.847626
H   38.178108   79.033325   81.065308
H   24.962742   46.275108   47.731064
H   45.936127   45.829037   47.257607
H   34.561436   91.132187   58.533424
H   81.789665   41.126579   24.000364
H   24.898094   38.429863   25.678621
H   35.580688   17.384714   80.404068
H   80.385910   42.921196    1.062332
H   40.026909   90.624634   68.713295
H   22.573956   52.062305   34.624538
H   98.520416   54.150932   78.276146
H   13.036879   65.369362   97.591820
H   36.060181   56.599815   79.957130
H    7.966336   64.508621   78.152061
H   61.552792   98.526688   23.375957
H    6.376983   10.683920   51.837456
H   49.991764    1.437479   55.940655
H    2.728235   74.324966    6.890894
H   87.367477   42.491898   81.533485
H   56.551357   55.530380   29.985876
H   35.767815   48.697578   11.473451
H   48.381168   19.635107   75.136276
H   43.100521    5.732351   15.000648
H   88.994652   21.737961   90.610664
H   30.031963   55.876831   63.634403
H   41.426620   11.899665   89.564232
H   75.725700   70.483032   50.029385
H    0.870705    6.389558   93.785370
H   66.544502   21.007423   11.515223
H   91.122955   25.277460   63.104721
H   50.943268   85.565346   63.067665
H   73.572235   76.747253   97.478661
H   28.155731    6.939100   58.984524
H   91.609413   73.574875   31.067368
H   70.606972    8.703415   32.935547
H   44.130898   73.581528   68.559250
H   64.164291   94.332962   39.516270
H   42.524010   51.899620   91.548836
H   18.934193   50.299656   49.066116
H   76.887871   51.590611   45.436176
H   48.017765   30.089317   93.894684
H   48.722023   41.927734   89.433655
H   36.555336   97.978973   92.081032
H   92.350174   57.673569   84.272812
H   26.147530   29.386513   11.983292
H    1.628630   79.741600   56.100945
H   43.788837   36.968037   44.185806
H   63.746613   81.926567    2.904896
H   97.279564   20.286654   94.349083
H    6.401133   68.792915   37.016617
H   41.609524   36.361866   82.850838
H   13.077015   90.832344   17.713665
H   25.171358   89.709488   29.091482
H   79.594849   82.350540   98.340904
H   87.330940    4.801180   86.210846
H   52.000511   11.985914   29.931988
H   67.920906   83.527214   81.533005
H   16.858883   23.603001   47.400040
H   57.261909   78.664497    2.064863
H   49.968346   37.670826   35.015678
H   76.900253   68.954720   80.418953
H   49.916264   68.962936   33.019447
H   63.060448   88.828812   56.813030
H   10.473749   34.777924   44.819855
H   59.872818    2.777017   70.698074
H   11.778046   67.539864   20.648577
H   55.604576   26.528324   50.305607
H   76.364227   65.076874   65.753662
H   98.971611    2.883839    1.267791
H   27.002848   75.470184   61.621231
H   30.461151   62.028553   55.793007
H    2.019073   28.745697   35.058681
