100
TIME:    2.851, STEP:  2851
H   24.520596   60.570091   96.535843
H   21.964561   59.322891   57.840199
H   28.760893   79.016602   89.871910
H   81.955139   15.188894   83.890442
H   69.634903    1.277737   88.402924
H   83.810188   98.119392   61.090801
H    3.550246   53.851799   13.404853
H   95.803314   35.249531   46.425106
H   83.544914   12.181442   20.626358
H   96.931557   57.319496   19.331232
H   35.061951   80.958801   65.125778
H   47.027107   66.596588   89.992134
H   61.908890   89.217789   41.762657
H   13.916196   96.288277   74.203056
H   15.179165   15.364589   13.726794
H   86.891434   62.370209   96.383156
H   94.846596   70.541122   32.926128
H   62.069466   56.056541    0.704366
H   89.671486   97.954681   13.564966
H   15.709007   45.270023   10.441919
H   95.094345   72.391876   79.861008
H   35.708496   47.868729   76.489304
H   47.679070   71.435219   50.780304
H   54.152725   70.874969   95.333031
H   27.615330   60.061752   57.596703
H   33.586391   42.658298   21.947496
H   16.233524   23.963861   56.541424
H   91.983025   89.514763   61.012943
H   73.162903    7.757242   22.403662
H   10.313796   20.278091   10.035141
H   28.259295   77.709793   83.816902
H   45.771004   73.739998   35.332695
H   71.179047   59.889458   54.637550
H   98.562141   12.445555   51.642548
H    9.902831   43.406464   98.335579
H   20.437813    8.445299   10.839528
H   53.246468    0.125001   33.112850
H   46.153328    6.772697   23.628933
H   24.730659   19.298307   68.029175
H   94.661285   45.282433   62.346127
H   40.405727   54.006557    9.514546
H   75.389519   39.813103   36.743011
H   35.798168   80.596542    7.404774
H   97.304062   60.555374   59.488838
H    9.352850   19.406132    0.078224
H   41.305775   17.295246   94.745552
H   64.008102   79.884491   52.827255
H   56.391674   24.737020   44.981636
H   48.365822   96.330376   30.745970
H   85.676506   74.138359   84.261871
H   43.327106   94.397507   83.477325
H   43.685429   99.187271   86.898857
H   68.019402   38.539795   37.287712
H   10.672565   60.693817   57.623016
H   13.791494    8.438125   24.597448
H   97.133469    9.535686   95.572037
H   76.992149    7.282405   27.141380
H   13.765042    7.645635   40.121292
H   15.129601   59.230587   92.610329
H   70.881195   46.925961   82.521370
H   39.544350   45.986546   92.109787
H   97.727043    1.405655   66.357681
H   67.615944   12.735767   37.968857
H   38.812439   57.303230   49.737926
H   45.483875   33.139111   61.070175
H   26.203621    0.541292   14.758245
H   58.827553   46.928173    4.707973
H   83.427605   80.588623    2.496886
H   98.994347   44.931648   81.423073
H   88.146057   91.539619   95.729736
H   31.501244    1.417248   27.949688
H   38.889168   56.905991   65.359863
H   21.101213   77.283592   88.646721
H   67.450768   68.963745   33.765144
H   99.630638   32.702213   17.523109
H   93.055855   90.295036    4.094047
H   25.806936   79.441544   41.471119
H   65.925491   64.302193   71.891113
H   98.229752   45.144444   49.489937
H   59.706947   53.683414   75.305038
H   66.673050   58.776562   50.386082
H   55.238640   62.846756   48.378883
H   98.181992   54.844757    1.443642
H   46.294170   56.125336    3.022706
H   13.509040   70.553787   71.379982
H   85.675171   13.775574   39.765392
H   57.566566   96.061989   59.490005
H    1.850195   77.036514   66.094276
H   14.848867   35.432533    4.874952
H   14.271507   91.976517   26.134666
H   40.697296   27.377995   93.669632
H   89.236206    9.918064   87.848000
H   68.209244   13.060152   39.476646
H   22.787495   86.167183   19.047333
H    7.297555   94.353851   81.600182
H   29.402527   83.148750   20.191330
H   36.303024   31.293438   73.225899
H   17.332335   40.512238   10.417891
H   72.898430   49.139835    6.236063
H   16.298212    5.473461   23.093359
