100
TIME:    0.574, STEP:   574
H   78.505287   69.382607   98.620499
H   85.303352   35.866337   14.207938
H   89.626556   15.199948   16.600166
H   81.572952    9.000792    8.699771
H   90.029785   18.766151   50.141411
H   19.115463    0.588921   35.590580
H   22.887577    0.095824   35.340321
H   74.771027   38.260006   55.492065
H   39.517982   31.105728   63.957306
H   59.154060   24.627106   30.167261
H   46.862946   89.338791   84.458672
H   33.932644   52.462288   52.070854
H    6.750827   26.979752   68.077202
H   26.660633    3.307493    0.920720
H   87.483711   18.751883   23.180292
H   78.444611   61.532017   85.393051
H   77.917809   19.956528   25.616152
H   13.410357   66.787018   79.646774
H   54.202393    2.431633   93.604034
H   77.111732   93.497253   55.347466
H   30.214569   99.073151   41.663818
H   17.386829   44.857552   70.381355
H   78.080299   89.953911   15.926863
H   65.710709   43.565983   64.445847
H    9.054644   40.651997   40.797318
H   44.027042   10.506551   35.372475
H   12.581720   18.616146   11.356512
H   84.108391   83.231567   85.747513
H   23.652328    1.170070   30.038338
H   23.002920   76.633286   29.019547
H   38.681278   73.516151   63.990288
H    2.000110   36.652565   46.126015
H   10.789143   26.485342   49.507408
H    2.354664   21.118896   47.569145
H   66.504158   15.530337   59.679771
H   22.462318   29.576494   18.669279
H   34.853291   83.514503   53.694225
H   40.265533   48.448376   62.945644
H   24.914944   68.254784   87.111526
H    9.129410   58.448040   83.195549
H   96.015854   75.875374   55.865086
H   80.033318   37.619484   29.767508
H   16.185034   66.942047   42.933540
H   42.705215   22.390989   36.854744
H    6.865601    9.244868    5.225885
H   70.620537   73.994682   85.569237
H   42.140980   56.706196   32.528023
H   56.270069    1.293220    4.093809
H   81.808220   84.910568   21.576498
H   37.928402   39.486042   43.517998
H   43.500828   14.227499   59.469044
H   33.027458   10.475700   36.380165
H   20.786058   25.336975   69.534218
H   63.396984   97.836983   57.145344
H   95.063034    8.824347    5.276838
H   94.284439   11.928698   73.086487
H   32.640739   72.984383   10.579672
H   83.317566   22.679802   98.769608
H   35.546860   63.021515   67.418259
H   21.141022   71.908112   47.283653
H   95.908646   51.876244   69.641205
H   78.538757   22.602646   69.384705
H   13.166607   68.011024   94.179298
H   82.455208   44.916901   11.555227
H   55.106529   14.999388   49.017090
H   66.083626   13.737843   80.125221
H   41.515892   68.205170   94.774399
H   40.715767   50.365097   93.643120
H   85.510277    8.542336   24.231808
H   42.013954   77.014793    0.523729
H    3.804476   56.348957   55.263187
H   26.638426   32.475685   98.646736
H   69.565872   89.914619   47.031010
H   17.556763   13.055416   69.094078
H   89.846848   29.460432   44.911304
H   39.229000   44.360970   57.305706
H   19.070095   76.794548    1.190945
H   58.947891   13.187908   46.140766
H   89.065483   51.821140   24.088760
H   71.375473   77.693886   71.470581
H   22.114574   35.219952   14.295443
H   84.390999   47.976212   38.781326
H   54.114040   16.837999   84.570587
H   89.655487   61.279514   11.001564
H   24.380735   12.979096   92.109688
H   38.081814   30.137825   81.643486
H    5.490896   61.618446   50.913662
H   65.195435   59.338142   89.773232
H   67.594917   62.212669   23.504333
H   15.586853   85.666946   44.732342
H   47.513004    4.426624   45.583569
H   20.757143   38.675987   44.460243
H   22.112610   44.829330   63.321037
H    2.706389   48.050598   65.519157
H   46.668217   98.313416   29.275776
H   41.331650   73.064568   37.801216
H   17.041086    0.621254    4.177565
H    8.972690   21.124939   46.851730
H   81.368095   39.324581   96.971077
H   74.888809   63.961681   42.401840
