200
TIME:    0.542, STEP:   542
H   18.751028   61.472721   20.503590
H   30.656023   37.287018    2.157243
H   11.808007   82.356644   60.223320
H   28.022495   80.503609   36.602470
H   12.003732   91.383392   49.316467
H   79.794006   44.618240   56.610565
H    7.734664   55.089851   55.496807
H    9.656278    1.927302   14.352656
H   99.693077   82.978714   40.352131
H    0.230271   70.668602   84.160378
H   22.719957    1.045547    2.505150
H   32.026611   50.083656   27.131880
H   18.586391   97.030617   48.914177
H   90.129570   54.481091   56.818356
H    5.041281   74.269402   42.235527
H   20.497662   13.523197   47.808228
H   98.414352   21.862652    0.769478
H   29.390949   97.685028   38.143803
H   75.073502   18.768494   46.929550
H   91.017052   75.557335   25.763706
H   61.709389   91.833832   12.004574
H   83.305733   60.357796   58.936798
H   85.961708   60.345673   41.889885
H   15.004926   90.812553   90.639107
H   16.373016   24.849989   34.634182
H   18.411100   75.738953   96.982201
H    4.744126   64.856483   61.224350
H    1.441074   82.587578    1.525920
H   23.788250   47.350288   36.569984
H   79.402374   28.854536   88.179214
H   12.967207   64.066383   16.564041
H   26.434284   70.584457    1.038434
H   19.826286   15.483900   76.867981
H   86.431465   63.907402   43.568939
H   33.495792   77.322128   31.921904
H   23.196350   43.036217   82.939507
H   94.932404   67.910767   88.222145
H   17.976963   52.567287    1.588927
H   41.893173   35.586430   51.144562
H   87.186523   38.446590   51.899506
H   80.594170   91.116119   11.548364
H   28.371111   36.774132   30.876270
H   71.264236   80.844353   61.542225
H   36.608475   77.901649   29.549273
H   39.095634   85.509155   55.262199
H   36.809921    5.979002   45.972340
H   85.665222   11.416460    2.800492
H   82.763512   65.545998   36.790848
H   98.759735   17.291683   61.384068
H   51.310123   19.164366   92.935989
H   71.024124   66.673653   15.900207
H    9.593699   40.895977   70.034615
H   60.321526   85.783272   11.876495
H   17.911915   88.556778   86.175377
H   64.415878   69.668549   81.006371
H    1.434229   64.910194   88.537323
H    4.568615   17.888283   46.415058
H   70.708115   65.599915   99.852684
H   21.808661   80.311386   14.430697
H   36.118481   94.293373   61.411453
H   49.441437    9.484304   33.413040
H   95.363945   17.140299   51.381126
H   79.767334   31.462614   74.696289
H   31.443211   65.583199   10.410294
H   76.203064   80.581238   30.278879
H   26.893038   28.294062   38.291702
H   74.894386   16.791790   92.074562
H   95.650230   92.136543   93.250633
H   27.264669    9.934344   58.157341
H   43.498539   46.893650   50.966465
H   58.332680   81.815475   81.359436
H   23.652855   15.883716   42.650837
H   87.078751   30.884136   89.383163
H   17.704111    2.326522   69.364540
H   82.822342    5.760256   53.412689
H   60.947166    8.414691   60.904030
H   94.151123   41.192940   67.873817
H   15.369539   11.469194   37.640663
H   13.826572   43.148182   28.249722
H   63.725468   88.982666   79.939484
H   56.185680   24.997942   96.650146
H   39.915775   63.159359   78.521111
H    9.821465   16.978987   81.443581
H   14.825865   71.734871    3.694408
H   28.153938    2.517365   49.223701
H   33.175514   75.207825   21.496147
H   49.390518    3.413410    2.463687
H   72.820045    7.304256   22.832970
H   74.929337   72.792297   78.258423
H   21.931503   99.583611   51.543026
H   28.583225   37.499859   79.411209
H   81.951805   91.185150    4.957407
H   61.606030   13.456097   87.128708
H   46.485653   83.583748   77.397041
H   32.777260   52.841072   80.517738
H   56.765541   34.461395   14.862254
H   83.402245    3.833583   11.335560
H   98.592628   33.131401   51.452930
H   30.174797   66.752777   53.951492
H   72.455421    2.834642   27.324137
H   23.340361   88.776367   83.160561
H    1.802244   81.225555   64.198753
H   29.439573   26.133116   34.722965
H   36.387383   68.497070    2.155200
H   24.938406   23.503960   34.878712
H   99.378960   11.987043   29.751707
H   79.964317   33.846668   54.853745
H   62.971783   45.869644    7.063757
H   80.471443   36.277557   13.735828
H   14.068049   23.849688    7.015330
H   51.167923   93.442436    1.008330
H   98.120316   70.939636   93.951149
H   51.848808   83.779160   87.366447
H   62.201164   12.886600   67.166199
H   53.772224   94.544220   16.183697
H    1.713710   96.962746   92.558395
H   20.158268   12.695172   87.700729
H   39.238903   41.861233   27.941826
H   30.331461   69.051971   68.613846
H   78.752434   52.702328   60.608543
H   43.706551   23.766285   77.623817
H    5.258419   20.325871   57.071533
H   39.517281    9.085472   32.988041
H   99.627823   56.451294    4.640166
H   67.879784    1.474688   82.824959
H   58.786526   70.615082   19.700342
H   87.879951   50.600021   59.391525
H   68.822884   89.938560   37.553188
H   96.184196   41.551975   78.007988
H   82.382996   22.717937   71.646614
H   60.799828   74.402618   14.952465
H   70.108192   89.046677   16.448887
H   91.451607   97.287834   99.621628
H   86.112259   20.745991   53.424160
H   19.345173   95.909485   42.539429
H   54.314545    1.239261   79.232430
H   69.392700   87.334084   70.372765
H   93.794304   54.791515   78.426628
H   54.207001   48.557007   71.478661
H   43.611534   94.605949   87.066040
H   65.568817   54.187599   24.665375
H   43.335495   50.186813   53.286999
H   45.297272   62.319576   89.197922
H   43.874794   15.595842   83.128883
H   54.497356   59.751251   58.943821
H   57.005463   67.178787   15.382324
H   51.873894   95.455254   45.119518
H   34.406151   62.177101   67.092308
H   73.258759   52.183289   94.942245
H   19.088795   91.971931   78.695435
H   65.575386   66.438828   49.064312
H   46.500114   98.753395   38.688332
H   90.205276   20.546307   92.863190
H   17.893162    8.074707   68.489616
H   25.587978   61.854603   66.216866
H   72.467262   44.277729   63.352150
H   62.472454   69.940521   84.331711
H   50.339714   31.814423   16.799377
H   98.559822    0.596412   91.404991
H   60.293835   44.621613   89.830582
H   56.922447   72.140175   75.386177
H   29.424711   21.491257   32.927696
H   78.218956   21.402832   37.106480
H   22.360048   29.051510   58.278038
H   56.062569   32.335747   12.791908
H   17.116879   54.830143   60.650951
H   69.699532   92.682320   55.423214
H   23.896030   44.672928   60.500813
H   98.176521   27.188097   36.143822
H   40.254791    8.180694   87.002533
H   73.595581    9.225299   35.950729
H   35.730080   54.229858   58.385506
H   43.508018   64.477676   81.926590
H   67.507156   67.314369   81.245972
H   57.401428   92.764725   85.031395
H   10.231423   49.292137   23.576483
H   32.315304   62.355194   99.541222
H    4.406559    9.488869   68.741837
H   67.878304   14.358974   65.602692
H   71.934608   57.694633   90.645241
H   75.904160   96.011665   34.697624
H   25.319071   30.474697   80.641174
H   51.730350   89.849686   12.049805
H   58.057625   25.779224   88.300545
H   89.428375   75.235703   77.152634
H    5.582687   38.772079   85.465675
H   41.867798   99.351585    5.956743
H   75.912277   80.016792   36.093842
H   97.872536   62.520138   69.994919
H   55.105339   56.630505   69.518570
H   62.247250   21.032715   77.144844
H   45.177185   93.136322   20.777731
H   10.808587   24.708714   64.724327
H   29.827467   75.583755   39.399502
H   74.530869   40.766117   20.828411
H   76.065445   11.124495   25.428825
H   11.468707   93.794182   13.660016
H   20.132685   91.404060   38.449692
H    7.886071   12.456915   64.510567
H    4.857919   24.761078   93.553070
