100
TIME:    5.618, STEP:  5618
H   37.399574    6.822838   94.002579
H   45.319160    9.294026   32.338001
H   76.328400   78.085602   57.399616
H   82.419571    1.187757   32.220802
H   44.851135   23.064898   13.378519
H   40.902218   95.121696   35.115536
H   58.529430   40.692318   29.787996
H   78.322571   74.629745   92.367424
H   15.526772   46.145645   46.454285
H   21.315115   97.049522   27.684431
H   77.682358   92.295151   98.595634
H   41.418327    5.292007   93.034111
H   85.570724   21.859077   66.788994
H   76.911232   87.759621   84.772301
H   48.834633   68.205093   80.720795
H   75.636017   20.358353   66.697968
H   72.340950   53.556782   84.817047
H   21.204962   21.465797    4.777361
H   32.770519   14.034236   59.338535
H   41.157524   86.508827   98.832222
H   30.896629   96.927063    4.762550
H    0.983475   51.541962   40.853668
H   10.734881   48.931389   71.612595
H   97.064507    4.035861   89.831589
H   28.651634   40.624657   78.030067
H   20.936308   60.578674   62.125366
H   77.632996    8.942570   11.435358
H   58.510426   18.668938   52.475655
H   33.329247   58.800816   91.606903
H   16.412582   51.794304   30.003040
H   37.158836   25.832748   64.900658
H   20.481022   97.294495   79.177666
H   66.082756   57.442574    3.910763
H   15.475163   58.866539   35.072929
H   41.123703   34.242477   66.823853
H   61.000675   25.454765    1.763663
H   18.638645   98.791138   51.141705
H   31.790195   56.143856   18.888706
H    7.933526   59.010002   99.886757
H   34.040874   86.244987   80.047447
H   51.300919   48.948822   74.703346
H   26.759697   63.634834   66.766594
H   59.631962   97.189423    7.268599
H   20.615887    6.940879   30.034513
H   69.334938   10.235583   36.858257
H    5.605911   70.071579    5.984923
H   85.625290   30.364525   79.393181
H   56.539448   53.233551   16.187887
H   29.249924   67.166077   20.369202
H   43.704144   16.240904   90.734299
H   43.116001   27.262125   12.649800
H   78.157021   42.431118    5.249681
H   25.405979   54.583801   76.585167
H   46.590233   15.538438   79.723595
H   93.481041   50.940128   48.132374
H    0.592933    6.624132    1.376827
H   52.407639   27.441948   90.305916
H    7.727975   46.337105   68.848495
H   33.356361   76.143242   80.186699
H   88.288956   59.607365    3.821297
H   14.088135   17.309338   76.371880
H   99.524117   75.650528   41.158104
H   55.467358   23.920980   48.227325
H   28.817177   72.366760   74.612671
H   55.312172   12.143425   18.748987
H   56.223320   62.985649   78.363335
H   36.826263   42.590816   38.299942
H   92.291939   38.837254   34.775486
H   36.902813   46.112679    7.880565
H   44.204926   30.710800   89.903229
H   43.636375   13.152020   94.755562
H   10.737740   65.074463   67.946609
H   40.687653   40.416397   17.701546
H    6.537090   93.856041   69.351097
H   33.037975   36.649883   27.280907
H   58.474113   67.635185   17.909689
H   77.033440   39.615231   90.405342
H   95.924179   83.373528   24.700510
H   30.916508   37.016888   80.363457
H   24.012012    2.979918   36.925446
H   20.807383   87.402451   15.763911
H   62.857033   80.904388   16.995058
H   73.226707    1.072106   64.974533
H   36.659393   92.903244   50.298908
H   78.778954   97.474922    3.150373
H   21.991871   15.411826   31.914307
H   42.368248   94.878410   91.431366
H   46.381889   55.516338   37.327820
H   72.272568   81.371208   82.242805
H   69.632782   78.136642   25.047857
H   53.934380   76.786621   52.103680
H   93.974007   18.006678   40.571571
H   45.578033   96.086617   53.453144
H   90.225899   54.010693    5.612262
H   59.459846   46.503933   45.181126
H   57.945358   73.883087   77.271835
H   16.672087   90.086342   14.093030
H   27.433290   64.435196   66.098289
H   41.084412   61.067287   74.471230
H   88.166840   34.467838   56.541691
