100
TIME:    3.725, STEP:  3725
H   65.415680   80.419891   95.735672
H   97.651863    6.707586   12.971601
H   43.784103   41.895027   79.616386
H   82.101837   79.179802   35.982975
H   61.806564   71.332680   64.704529
H   70.260628   97.172523   47.645584
H   57.741703   12.866745   81.752785
H   27.108643   10.862363   66.177773
H   62.060326   28.149933   65.612877
H   73.046455   69.868843   53.558540
H   53.764603   16.125706   80.938286
H   13.666649   10.405558   27.779074
H    6.315741   36.339828   54.893700
H   70.640816   93.594368   40.714649
H   25.811436   37.294998   71.716316
H   51.750595   85.926872   23.833952
H   24.564919   28.350643   12.489798
H   80.740807   13.554034   70.404480
H    3.286746   34.621964   59.608135
H   92.161766   26.711775   69.947960
H   43.229935   85.381775   56.138153
H   19.499725   49.028976    2.060130
H   36.009911   64.327034   25.774132
H   72.948631   81.357208   30.422382
H   96.357452   90.747833   64.049782
H   29.576853   16.617434   40.026451
H   40.867977   87.633316   73.881325
H   18.237455   30.310104   89.899803
H   92.166962   87.053329   81.089851
H   43.825745   98.645592   79.515594
H   62.659611   56.082790   14.668800
H    0.956103   49.592155   54.422142
H   32.741100   95.944038   33.374374
H   35.492203   32.348640   14.822906
H   88.177185   77.338615   51.553833
H   96.434731   77.104218    7.828792
H   37.075096   68.118149    1.980847
H   10.032004   90.780113   85.304405
H   87.838898    0.257573   83.332283
H   12.340424   63.462204   31.109156
H   80.674652   83.997406   30.105085
H   96.839340   79.038925   77.805115
H   43.326443   85.837662   70.533409
H   41.492142   75.200073   44.944481
H   33.539753   84.921783   74.868958
H   30.030033   33.965473   98.292976
H   70.836227   27.416451   61.222382
H   56.438351   33.736252   99.059853
H   73.913864   23.945274   95.881531
H    4.001864   87.434532   23.133274
H   43.260426   10.018616   92.692627
H   86.161163   18.086746   29.522594
H   86.143272   43.607544   86.527382
H   90.431755   46.430771   96.191254
H   44.203537   85.036316   32.029049
H   98.227036    8.615942   65.819016
H   32.400562   82.063271   10.265989
H   48.684807   25.107494   17.607685
H   84.059593   96.158478   25.512497
H   13.208003   14.103399   57.662727
H   94.676125    5.343360   23.965816
H   66.707085   93.270309   26.809631
H   26.950155   53.096001   78.036034
H   98.828056   62.057579   26.006191
H   80.174843   63.335545   42.462437
H   72.512550   57.092018   66.434875
H   88.704453   77.144196   46.905743
H   23.054710   30.574568   44.279140
H   42.556335   82.131592   26.606815
H    5.855314   35.499092   93.889343
H    3.746052   41.951164   17.464115
H   66.822861   27.899796   29.348415
H   64.114563   34.052311   66.241936
H   48.211102   13.653633   81.827507
H   41.768421   33.949146   83.777992
H   13.717166   46.310722   45.283924
H    5.160414    3.687967   56.927753
H    6.987605    7.151460   20.157084
H   40.139503   42.577229   59.245354
H   16.844460    6.081730    0.009240
H   83.770035   67.818497    2.623801
H   20.815269   68.554642   75.295166
H   53.479786   69.434540   84.687805
H    6.424692   30.915668   23.195946
H   70.952637   15.882912   86.655518
H   65.564209   45.880539    0.458368
H   15.939062   32.515083    1.165605
H   15.916533    7.061783   57.004135
H   32.989120   86.770485   97.725105
H   36.998432   56.020691   57.375298
H   76.464935   74.569893   12.126992
H   53.907669   75.644096    4.504296
H   24.233547   39.285942    7.064482
H    7.262604   39.181511   77.975563
H   92.186424   16.066380    1.684327
H    1.591295   48.634712   75.047768
H   66.929382   81.450813   22.961229
H   20.539686   47.953827   96.431938
H   31.262871   52.907307   33.029198
H   70.583946   83.043434   38.898827
