200
TIME:    0.967, STEP:   967
H   31.810167   60.062237   27.770826
H   34.443542   43.491528   19.411100
H    2.900358    0.958797   81.156853
H   42.348053   85.471107   25.488827
H    7.491375    2.155002   43.205990
H   65.968018   33.083073   44.031315
H   13.892158   54.788300   63.723011
H   19.180290   20.278202   99.267334
H   16.951977   76.607216   29.984102
H   85.269409   64.713745   67.396690
H   37.533287   10.124093   15.935555
H   33.784042   61.427517   47.382671
H   29.017490   11.136625   31.495506
H   70.042328   56.274189   77.297935
H   84.522659   77.541077   41.189823
H    8.109977   96.012497   38.640079
H   18.417944   41.764999   80.147003
H   19.299501   18.117006   30.577599
H   89.214012    3.382331   53.185940
H   92.369171   69.720848    9.288435
H   66.809830   13.049036   92.533638
H   73.844139   76.602684   42.558968
H   73.234924   57.255577   31.692270
H   24.006895   94.687332   89.306442
H   34.845497   41.942791   19.469044
H   18.059290   94.600533   82.945450
H   12.974709   73.384239   78.312286
H   11.195327    0.119741    2.644196
H   41.688431   34.432198   34.081371
H   60.196766   40.240326   73.477753
H   12.412335   81.822273   17.083651
H   18.705803   80.545395   11.502469
H    9.557312   24.628563   82.059212
H   72.365532   64.371078   50.997490
H   13.099820   59.761181   28.688328
H    9.301623   33.348175   87.799400
H    7.130398   58.737755   91.412758
H   96.954948   63.560959   82.480843
H   26.163841   20.368410   60.591564
H   83.110710   36.698887   35.297943
H   80.720627   71.262337   25.654957
H   49.525131   27.861763   18.273512
H   63.612038   71.081207   77.323441
H   35.661667   98.543358   44.748589
H   53.617138   98.475883   70.599190
H   30.828983   94.918610   50.594513
H   93.674179   90.593918   12.117908
H   72.416718   65.539513   21.512222
H   15.196029    1.163880   61.690483
H   36.101212   21.082300   74.956367
H   60.914032   61.294357   99.057457
H   93.348091   48.211040   79.171959
H   71.786461   73.632347   17.426489
H   11.586339   97.525513   92.469055
H   46.426529   60.216682   67.261444
H   95.986626   54.438702    2.454329
H    3.355774   19.496559   41.856113
H   75.351364   75.479790   92.180946
H   12.840736   88.521378   24.709461
H   26.288864   91.906898   53.554893
H   48.064999    1.192474   20.995195
H    3.002664   18.147093   54.639832
H   91.475975   40.266029   60.357574
H   41.741325   66.189545   19.899448
H   83.034996   86.917068   47.658558
H   10.221092   44.805016   45.931015
H   59.019142    7.826738    0.855216
H   93.270241   93.102806    1.665049
H   42.381424   15.677609   52.778046
H   41.052078   54.301125   50.943768
H   58.146236   89.166206   92.727615
H   11.708323    4.712863   39.675850
H    0.567571   38.231625   75.151863
H   31.550365   92.984863   81.737892
H   87.997360   12.640016   33.429207
H   71.689545   93.410889   58.126835
H   92.354782   57.014683   61.861656
H   99.628349   19.208214   23.107811
H   17.063026   62.076103   18.819324
H   57.319923   86.612404   59.784149
H   74.223663   17.815010   90.340256
H   58.603882   55.515182   65.382530
H    8.163336   21.640881   69.008621
H    0.966743   85.632195   17.545824
H   13.019604    7.011630   37.179462
H   45.148418   60.337753   12.649159
H   68.438164    4.299016    3.438056
H   69.285728   91.486832   38.862698
H   87.938217   73.826653   79.788879
H   19.802807   18.634384   46.867352
H   10.768041   41.168739   77.520836
H   78.991409   94.914017   14.230869
H   81.796837    8.662882   75.024483
H   27.427708   68.314850   89.066772
H   43.545578   47.092133   98.218506
H   39.165291   43.963520   94.879578
H   89.167397   89.132515   29.639328
H   99.433838   41.894695   58.077290
H   20.544594   62.495384   55.457630
H   79.845062    9.740087   27.427896
H   42.302456    0.527207    3.173401
H   17.604980   87.655418   61.854431
H   38.249428   10.600906   40.661591
H   56.808601   69.281754   19.033197
H   24.375023   17.918766   48.657684
H   16.205124   91.179497    9.853466
H   87.572952   36.963894   50.275391
H   60.466957   62.187489   90.630348
H   91.272186   30.912853   34.286747
H   27.720564   17.924032    9.095388
H   56.759602   89.749237    1.307348
H   15.184497   81.626892   98.792191
H   44.467274   88.710991   78.122101
H   60.761497    3.724222   56.207729
H   39.589561   12.241444    1.281613
H   84.369583   84.531029   11.731570
H    2.684174   18.679779   92.655258
H   37.082645   62.780174   19.446495
H   46.471050   85.008278   47.610245
H   89.968216   61.184689   76.463989
H   48.142281   26.590496   63.697350
H   86.921715   10.257931   69.572243
H   49.763557   91.160782   45.596474
H   93.366570   41.158077   86.028404
H   55.162727   90.952667   68.768753
H   74.355736   82.243996   11.494951
H   77.315910   52.584427   42.978027
H   59.526657   93.271843   41.142628
H    1.414387   26.167969   68.322662
H    2.982538   20.703539   78.887100
H   77.955856   59.227753   31.194111
H   53.795212   93.261917   26.471432
H   90.063820   17.964504    2.783974
H   65.272758   31.642387   58.654301
H   40.340313   88.224777   23.009895
H   42.995003    0.693813   72.971176
H   70.096321   88.417076   91.530029
H   97.419411   41.521614   71.711426
H   65.315781   54.500496   71.378143
H   43.841751   74.223640   75.256882
H   86.609352   41.689411   38.394089
H   23.770636   63.100040   63.194435
H   31.635006   70.140816   74.862862
H   24.400383    0.211450   90.171577
H   74.474358   45.656136   72.841141
H   72.578430   74.500336   95.027107
H   61.925621   93.594063   42.076439
H   22.801270   46.356979   64.653954
H   84.620453   34.438747   90.717278
H   32.636703   96.611938   62.791008
H   50.596523   73.656616   45.855865
H   64.390533   86.992874   25.369793
H    9.948956    4.654850   77.944481
H   29.127588   17.830076   57.986252
H   42.440834   73.079803   73.904816
H   85.083801   45.331539   76.429039
H   66.921158   82.686760   89.364059
H   56.382099   24.995461   26.756262
H   79.108109   98.994781   75.643234
H   55.528992   27.280540    6.139843
H   61.097157   54.873901   64.086090
H    9.469601   19.288794   29.245846
H   96.513100    2.872853   36.929764
H   37.960182   41.536728   40.095760
H   51.993240   46.756733   16.967739
H   24.439238   41.307327   58.327705
H   62.381226   85.808235   59.928658
H   24.267296   64.009529   78.075119
H    3.952226   25.805984   35.140270
H   59.649761    4.973463   82.216614
H   65.476379   14.279534   35.915062
H   21.047466   38.443783   59.690609
H   51.719631   46.214378   69.968277
H   62.273235   57.150249   91.106392
H   37.648163   89.567627   65.047913
H   23.347679   51.594585   24.001659
H   27.949287   75.633003   17.318249
H    8.173312    9.894180   74.176254
H   57.008423    4.478693   60.633049
H   51.718655   62.253578   96.640610
H   68.144875   11.242332   24.816717
H   33.891232   30.993496   96.156502
H   32.160286   89.398979   20.470558
H   67.312737   26.565529    3.935748
H   94.924400   56.802132   75.401688
H   14.479737   42.358276   87.592751
H   56.666534   92.072189   15.373753
H   55.494301   98.019112   50.965534
H   85.564034   64.415016   74.852173
H   62.833820   54.318607   74.888138
H   82.548637    6.971663   74.109871
H   41.693127    4.686278   15.364437
H   20.248882   34.819843   74.461533
H   22.402969   92.545235   47.964546
H   59.945683   21.783381   19.438192
H   77.103043   12.167361   19.606119
H   14.293729    5.383381   28.004805
H    7.780950   82.957367   26.463818
H    2.218631   13.646099   45.503075
H    0.425150   10.362138   87.648491
