100
TIME:    3.025, STEP:  3025
H   12.754078   44.613365   96.376541
H   17.124443   68.756866   68.816086
H   31.751783   91.535065   87.830193
H   81.984344    8.019651   74.353577
H   68.076401   15.224591   83.684937
H   81.112679   97.930885   78.322166
H   94.430550   65.601448   27.011879
H   82.127258   50.302219   30.448467
H   79.267662   95.451874    9.673506
H   92.176399   59.817879   26.145365
H   18.876892   87.960114   48.365818
H   40.385551   75.318359   77.606422
H   50.841400   78.690598   24.468834
H    5.300958   95.751961   87.443687
H   17.295887   99.822464    5.362509
H   79.895432   47.151581   81.939796
H   80.854591   82.050674   48.766033
H   65.787193   47.594963   94.672058
H   92.382271    5.254200   22.731455
H   11.021553   41.575550   22.288660
H   84.768936   55.069778   75.137711
H   52.390045   48.099716   61.671585
H   45.355919   70.020088   45.802124
H   37.986252   72.961823   82.411003
H   21.392605   46.262238   58.880409
H   32.788555   37.474354    5.638503
H    1.229277   16.730898   59.994289
H   77.300713   97.636497   66.764427
H   76.946320   23.543554   14.179045
H   16.985504   15.971631   23.867180
H   35.107578   93.313400   70.050575
H   56.757515   68.931740   19.224632
H   83.434662   47.158592   70.312843
H    5.914193   96.499641   44.312012
H    5.577363   30.253448    8.930695
H   35.566677   22.114054   10.241483
H   69.935127   93.752914   46.823421
H   38.962181    3.588155   35.907116
H   17.385521   15.507589   51.167084
H   78.271790   28.992624   76.035622
H   28.514048   59.976391   13.613580
H   59.751396   47.622871   44.917847
H   37.296932   81.639969   19.972847
H   86.192764   63.471924   76.501915
H   94.259422   12.541386   14.968291
H   39.060947   20.614033   95.451790
H   65.367477   89.347015   54.498596
H   56.400967   26.528502   55.747780
H   53.451530   81.918877   23.805059
H   89.324516   76.785423   72.091217
H   43.313831   77.599136   85.311951
H   52.141697   83.042038   75.476921
H   71.627586   39.548706   27.181660
H    6.643559   57.854263   65.301361
H   99.937790   23.687286   26.076963
H   97.351181    9.352821   89.648666
H   88.023796    2.261441   43.690178
H    0.808815   91.213425   35.639603
H   28.852119   66.582367   79.252876
H   59.398727   60.300671   77.572395
H   50.520241   37.895344   78.542587
H   91.551445   99.785812   58.484589
H   79.428169    0.862141   26.037155
H   50.761398   58.249748   45.013302
H   52.390934   19.241970   77.274055
H   15.514488   91.891212   25.045860
H   44.867409   52.943142   13.109084
H   71.408287   90.539673   10.815093
H    7.666664   32.429115   70.510902
H   91.671936    0.290621   95.363342
H   25.975464   89.578423   25.862171
H   24.542372   51.131302   78.098694
H    9.755610   68.675987   84.186272
H   63.622082   57.952606   23.423805
H    8.019738   32.950459   30.713959
H   97.168495    1.446262   92.385681
H   41.605427   64.360977   44.548298
H   74.100327   52.924099   81.499664
H    6.573634   44.633350   51.432091
H   51.173683   44.206287   60.314743
H   70.076797   60.576672   60.785831
H   68.294312   63.983109   33.829323
H    9.190596   57.749359   18.016056
H   58.264370   71.014740   87.129913
H    5.036451   59.670292   54.512581
H   81.671387   20.166893   51.848431
H   69.187630   83.410774   67.786972
H    4.650587   63.105576   64.283546
H   18.460266   25.744761    3.451359
H   98.887360   84.818558   32.354698
H   47.818085   36.773144   97.344193
H    2.110602   23.003222   91.164131
H   79.363022   18.281454   52.932335
H   39.605778   96.720924   30.779243
H    4.288909   78.768829   85.598656
H   43.774200   76.277534   11.203878
H   22.492020   41.279003   63.219093
H   17.970869   41.993744    7.633760
H   64.609428   49.889881   91.660866
H   27.105509    1.008863    6.331304
