100
TIME:    8.292, STEP:  8292
H   56.567863   61.605186   91.554459
H   71.471756   54.196606    0.941665
H   22.302797   70.463699   26.004425
H   82.868393   91.019279   85.650093
H   20.895632   37.397617   40.874359
H   99.429199   92.224754   99.930183
H   18.386829   21.253069   38.898365
H   68.151443    5.965960   46.850372
H   49.794685   89.050598   78.135941
H   48.275978   35.445835   32.386055
H   28.953384   99.889420   41.022057
H   39.359344   39.325573    2.695905
H   14.996529   60.081352    1.071319
H   44.510612   79.517616   88.264671
H   81.320625   29.350510   52.137657
H   68.119843   86.480247   44.732697
H   57.313728   30.422169   28.241827
H   78.383835   91.350395   12.085173
H   74.414062   26.212612    0.217989
H   69.112839   29.724348   80.890541
H   72.217690   30.722546   32.185421
H   57.342457   55.091736   13.137848
H   75.032051   27.186182   95.105637
H   48.611923   36.024628   91.237747
H   33.013985   28.563164   97.778236
H    8.509945   81.655319   10.567814
H   47.050850   97.787430   64.497726
H   32.887085   43.482227   40.862114
H   91.472099    1.407422   65.204735
H   18.945320   85.612228   42.578461
H   42.398258   65.614418   53.342430
H   89.319328   23.413280   31.632072
H   54.435017   61.800117   44.805801
H   28.459229   13.810295   22.422224
H   74.590675   31.849236   29.544142
H   93.447403   34.894867   93.357552
H   75.109154    0.863129   61.842495
H   21.269112    7.202772    7.585565
H   95.062981    0.750203   40.755638
H   82.179428   35.913940   90.431885
H   68.552109   40.700310   37.700405
H    1.409209   74.120239    3.282515
H   82.648163   13.229057    0.414011
H   49.871021   51.825073   91.483185
H   37.386276    4.734488   65.680107
H   71.089378   21.070190   16.848455
H    6.519887   75.785103    5.060847
H   56.693722   80.774902   81.639534
H    7.415783   45.706161   13.702118
H   99.832764   56.942982    3.755255
H   42.932224   69.104378   40.837585
H    8.119600   94.302612   29.718769
H   80.870094   70.088562   21.285711
H   84.668152   71.915634   97.720230
H   80.573311   85.276215   70.873322
H    3.923435    3.811344   10.347549
H   21.929153   50.284370   44.625710
H    8.616656   93.809853   99.971092
H   44.247494   89.134819   74.909912
H   11.833146   65.140030   27.766380
H   82.766098   92.955444   67.885414
H    4.618660   50.761307   20.167374
H   37.004353   41.452179   64.863129
H   12.436157   86.933075    2.009260
H   61.448776   98.575226   67.766769
H   91.958382   30.053337   36.472111
H   22.285975   35.038555   67.399887
H    7.580601   91.765190   62.608154
H   70.175598   53.976097   40.173370
H   98.430946   65.128189   84.256409
H   58.723057   31.213181   62.685188
H   90.441437   76.272850   63.845036
H   66.337234    8.155954   49.144436
H   47.667645   24.619537   10.471415
H   61.905029   40.524738   30.006552
H   21.684153   39.012276   37.983002
H   19.873344    8.106102   37.801682
H   21.551325    8.530453   72.379089
H   59.143051   29.162502   10.194986
H   92.878319   57.315056    6.558032
H   73.144844   15.066903   75.584442
H   63.520111   98.245377   93.295540
H   42.362068   45.789707   19.630962
H   20.626118   21.723639    6.071815
H   48.579056   30.206356   43.936546
H   60.454311   13.632033   17.605042
H   20.958788    0.456208   18.937874
H   89.387199   41.540154    9.602859
H   27.768024   32.486382   60.372932
H   33.214382   68.122574   20.636522
H   63.365498   21.175564    8.573997
H   91.822929   19.117077   91.523888
H   16.986515   76.319572   60.237671
H   48.655067   16.238880   85.915642
H   13.227036    6.982074    6.628382
H   78.806778   68.289978   39.156471
H    4.422701   43.539482   60.308220
H   22.271837   96.748558   12.418741
H   13.701135   72.609062   50.496181
H   54.258198   65.844650   98.944839
