100
TIME:    6.856, STEP:  6856
H   53.678787   93.292946   92.869156
H   11.130455   76.381233   10.397605
H   97.617859   67.152077   42.863468
H   82.627365   50.183624   64.363770
H   33.762482   22.295973   79.811310
H   21.700146   93.780479   57.719563
H   93.647598   24.287289   26.601282
H   81.018211   81.732849   78.699013
H   85.094307   27.117050   68.527290
H   87.497780   14.826841   76.157875
H   62.526611   42.108479   79.344475
H   94.165237   67.346497    4.911896
H    6.571152   46.992962   43.774834
H   15.613194   83.943764   78.985023
H   63.878975   57.621117   21.197994
H   25.859280   12.078260   63.933105
H   72.788338   35.441738   97.517067
H   47.679829   61.226074   61.859398
H   52.048153   65.972977   24.562901
H    7.806557   60.214779   83.120995
H   57.431961   73.681366   71.157249
H   19.671738   53.185425   35.426529
H   94.204720   38.862816   36.193130
H   82.037010   18.845919   97.886856
H   84.374825   42.445358   87.173012
H   15.280636   23.985451   45.703072
H   70.879189   57.482887   36.001858
H   54.051727   76.454613   93.394882
H   60.248039   71.121986   33.084503
H   63.882557   21.154106   28.420544
H   85.882332   36.846489   66.954109
H   98.649414   63.084270   64.569801
H   53.285221   66.864769   15.439580
H   67.784096   45.411179   82.919342
H   10.329033   40.574623   42.176476
H   68.618034   22.420189   97.871346
H   37.378723   53.454224   48.691257
H   80.620796   33.484844    6.251249
H   55.680012   32.034538   79.915146
H   17.435219   70.348267   77.450912
H   66.692581   91.429939    3.869843
H   22.427765   68.488953   29.971447
H   70.290009    4.615051   96.690758
H   41.564404   27.720358   51.078514
H   61.947533   61.387089   42.796940
H   89.626610   93.684555   11.014486
H   95.297165   97.689957   91.275230
H   56.606075   65.984558   92.788376
H   65.434822   64.634926   70.987076
H   69.682373   35.086140    4.159903
H   43.030827    7.740712   25.698936
H   38.328533   27.553322   23.982704
H   51.087452   61.762146    4.682379
H   17.924080   95.339157   34.351822
H   94.909592   59.432854   58.663761
H    2.134899    5.321877   59.232376
H   30.892534   91.719246    8.050110
H   15.543954   29.423212   36.961533
H   30.995155   28.455120   85.148872
H    6.594423   54.764004   68.609642
H   92.181999   59.734238   79.847916
H   55.585091   64.127396   85.141724
H   39.514347   39.442299   63.333954
H   13.828499   79.110626   41.000217
H    4.448255   13.266541   34.038837
H   80.172607    1.441344   51.564072
H   37.499191   85.391693   98.069107
H    6.774929    9.638946   93.959045
H   98.602943   57.157898   30.236248
H   69.283897   92.978447   87.296356
H    4.322758   28.919449   79.907722
H    8.671182   23.980984   58.592690
H   59.967270   79.181976   85.960510
H   79.280449   15.503593   95.793884
H   92.726677   38.416134   21.129520
H   87.737099   46.978588   34.607826
H   89.453705   32.396526   12.333651
H   54.087673    2.422715   93.070229
H   90.283714   33.380489   94.172325
H   63.300278   35.541359   30.270561
H   45.034294    0.210177   89.756500
H   55.764732   88.932938   13.431812
H   51.533432   21.774572   82.874222
H   21.831875   98.841576   37.227268
H   18.499037   20.037888   83.140129
H   93.498215   60.888695   17.884842
H   25.051531    4.865494   50.463936
H   66.292351   56.450695   24.491806
H   97.963486   12.441427   72.117561
H   60.177113   27.201351   69.300446
H    4.598451   43.635666   78.247971
H   85.573471   11.116279   64.156273
H   24.936161   33.233501   49.189583
H    9.873034   29.118372   89.088593
H   38.057045   35.611092   73.630035
H   60.199081   24.995459   13.327797
H   18.405401   61.131470   42.894714
H   25.043657   25.694595   41.247200
H   82.109123   66.408073   70.776115
H   65.062187    2.699504   37.280376
