100
TIME:    9.567, STEP:  9567
H   70.344879   44.681984   90.387161
H   36.258286   23.285381   81.335381
H   44.218807   62.192146   11.037893
H   83.082397   38.490898   15.762300
H    9.470709   39.594223    6.305836
H   79.662964   90.843452   26.197590
H   51.562641    7.346873   38.605038
H   67.938965   16.269497   29.783493
H   18.452751   66.463898   97.878334
H   13.449015   53.752949   82.307472
H   10.355988   51.190018   18.205389
H   90.694633    3.234957   11.939728
H   33.693909   82.910622   74.364990
H   81.381134   75.587715   85.292931
H   96.806770   15.461220   90.823753
H   16.854595   74.964096   38.896545
H   54.785805   14.754168   44.310104
H    5.651663   29.308540   67.885330
H   94.277573   79.701157   67.386902
H   34.763668    2.647913   67.698448
H   96.556885    3.792343   97.578506
H   79.577957   56.784317    4.559853
H   58.008965   16.821554   58.627594
H   30.145290   51.277313   96.545227
H   87.414169   27.449486    7.190914
H    2.495883   44.068344   90.584557
H   37.105751   44.788601   89.789169
H   25.306269    2.994924   83.006889
H   19.196545   17.085196    4.935405
H   67.834328   54.056290   43.937325
H   92.576775   79.946838   52.468506
H   69.823563   88.185989   13.598930
H   44.244484   68.515182   59.667870
H   82.330322   96.964317   68.708977
H   42.859642   35.313820    7.116116
H    4.280698   34.761845   89.349831
H   97.399109   54.171150   62.307514
H   68.568306   83.873924   97.558647
H   41.246456   72.968651   17.199039
H   62.088047   16.551971   90.746292
H   81.415039   84.449326   67.738853
H   93.958992   79.120163   68.371574
H   93.620758   20.878838   92.507469
H   68.465614   73.231056   16.144337
H   26.789862   54.440723   74.788040
H   54.636024   45.386700   22.028337
H   16.488300   45.126682   17.304827
H   56.771542   93.906998   60.528919
H   44.681770   40.111004   62.844719
H   26.594564   76.355492   14.607910
H   44.552280   46.140434   51.657318
H   70.085205   75.993011   46.022194
H    7.311325   77.481445   47.236656
H   55.138451   51.112259   53.981209
H   79.055916   97.010544   81.709732
H    5.511446    2.470168   66.943527
H    2.759163   13.494883   65.888756
H   13.677577   73.401909   67.131126
H   44.808681   43.010643   77.027260
H   27.695690   63.140827   91.502357
H   63.198116   33.661716   68.483009
H   59.366386   38.893784   62.480827
H   23.563900   54.448265   77.432556
H   99.988098   93.878494   67.398407
H   12.052798   96.741951   86.501427
H   13.633795   66.669701   11.860425
H   19.990257   79.117096   28.957535
H   19.507812   64.684395   23.560532
H   33.720154   62.362732   60.208614
H   24.325775   29.170076   81.552170
H   18.229221   44.459225   47.393593
H   85.447838   33.938866   57.301998
H   83.205856   45.086681   16.450382
H   19.603870   43.924397   34.714363
H   23.322489   42.402142   26.677847
H   51.829605   20.727329   52.190842
H   35.670845   97.751389   60.418068
H   81.447090   25.165962   42.800255
H   20.286497   25.417423   24.425295
H   30.350220   87.859047   96.715736
H   98.105553   28.257364   51.789986
H   59.194847    6.520436   86.628471
H   23.006968   67.112343   41.056103
H    8.343869   30.828514   89.619987
H   86.498291   50.445915   20.340624
H   31.106510   60.467934    6.144692
H    6.113195    7.753121   79.734612
H    9.891933   39.516212   96.385818
H   54.227543   61.496925   49.945076
H   20.487295   15.663048   66.211441
H   15.544373   90.020599   35.499657
H   86.160019   15.009441   15.817101
H   98.716782   14.571669   58.835381
H   70.169472   93.461472   74.509331
H   91.182068   92.775581   35.924110
H   84.116547   17.941912   73.300858
H    3.219209   16.708992   86.980896
H   19.810785   59.834095   86.818382
H   52.963158   78.114815   43.701496
H   33.454514   33.130596   76.120926
