100
TIME:    5.343, STEP:  5343
H   55.996986   32.040932   94.254349
H   52.914223   94.392319   14.998370
H   71.599319   58.300674   60.628567
H   82.373413   12.518452   47.295532
H   47.314285    1.022512   20.834244
H   45.167622   95.419624    7.881086
H   72.942467   22.122181    8.282640
H   99.937027   50.838642   17.616894
H   22.286797   72.585693   63.765572
H   28.829401   93.100929   16.914968
H    3.262180   81.229858   25.085026
H   51.915039   91.507790   12.608637
H    3.119071   38.489128   94.114433
H   90.527794   88.607246   63.846001
H   45.490288   92.769455   93.938721
H   86.692917   44.410782   89.525116
H   94.454750   35.368496   59.782715
H   15.324094   34.846104   14.310003
H   28.487469    2.497000   44.851269
H   48.565857   92.349892   80.108925
H   47.215523   24.304665   12.226482
H   74.618958   51.176895   64.272476
H   14.407052   51.167946   79.480408
H   22.615913    0.746065   10.255029
H   38.487091   62.434235   75.999123
H   22.189913   68.707535   87.986191
H    1.345597   20.374302    5.978671
H   81.714729    5.832863   43.384659
H   27.349709   33.850407    4.606339
H    5.868161   58.600487    8.142059
H   26.335373    1.173237   86.657784
H    3.117599    4.892566    4.635769
H   46.711376   77.563194   79.136589
H    3.855453   84.068718   46.658546
H   47.959259   55.030289   50.078697
H   37.095112    3.915035    2.628485
H   92.262360    8.862808   29.472698
H   43.155514   61.177158   99.483147
H   19.541859   65.002129   26.535631
H   59.941715   11.989206   58.411465
H   70.095551   39.513741   68.224464
H   51.422081   51.655449   53.814861
H   57.263226   95.540329   87.404427
H   38.174747    2.324834    3.146732
H   93.190147   21.085052   13.325320
H    9.154642   64.826370    4.867693
H   83.476852   15.408338   76.753792
H   56.524761   50.401138   99.172523
H   21.212166   89.942871   31.339031
H   37.936512   12.055227    9.968521
H   43.136982   53.811462    9.750773
H   64.792229   67.949783   23.303650
H   19.701290   52.989258   92.555779
H   52.957916   20.026184   67.588280
H   15.377285   26.839666   45.793011
H    0.250400    6.913405   10.738480
H   34.974663   35.376900   64.151207
H   28.204433   72.307182   75.931625
H   11.668365   64.524055    1.297638
H    6.436815   38.469173   11.642952
H   96.740753   30.098206   97.814293
H    9.283564   78.210190   53.601837
H   36.796513   42.686691   67.084900
H    9.933375   70.868729   82.077652
H   44.395844   34.107311   93.139015
H   73.117088   76.656761   62.103188
H   58.889709   33.084400   25.022717
H   11.288299   23.109426   21.628897
H   23.196035   65.872429   25.128662
H   38.634514   16.879185   90.482300
H   52.368599   31.862808   98.053749
H   33.412590   74.201126   47.811714
H   58.617874   54.018272   24.753204
H   12.590061   11.260952   85.690971
H   19.779219   36.257542    6.433320
H   51.972153   50.009621   36.413486
H   52.065243   63.451557   85.541985
H   83.004181    1.354193    9.512708
H   17.730053   37.824650   77.296059
H   37.495773   17.959778   60.617004
H   15.425854   84.557449   99.328056
H   42.218185   79.121017   39.999130
H   55.832611   96.473206   38.784237
H   17.740183   69.371140   75.416016
H   92.168922   14.676387   29.808372
H   28.321789    5.310603   12.817464
H   24.001623   14.873306   78.318344
H   41.959129   77.521851   40.179115
H   66.565781   96.683022   84.491951
H   93.945374   89.449509   15.217329
H   42.680260   61.936680   46.296185
H   73.626793   97.324371   35.332657
H   27.949938   87.836952   32.186970
H   63.647408   37.326733   87.069481
H   64.214104   71.136925   38.861698
H   35.231506   84.742767   91.475861
H   38.499809   74.304558   29.908447
H   26.477324   61.730133   70.533470
H   54.184845   59.881870   97.503990
H   71.084244   41.523693   83.032684
