100
TIME:    6.209, STEP:  6209
H   97.433426   52.625206   93.461502
H   28.997097   41.321018   69.603981
H   86.491623   20.604141   50.460308
H   82.518768   76.839203   99.825562
H   39.557602   70.436157   97.354630
H   31.735477   94.481422   93.644218
H   27.556976   80.599358   76.004967
H   31.871140   25.759510   38.104298
H    0.998815   89.323273    9.251929
H    5.170149    5.535808   50.825199
H   22.708969   16.074865   41.667122
H   18.859940   34.915546   50.965401
H   47.857681   86.119576    8.064140
H   47.648003   85.937996   29.747746
H   56.020515   15.414337   52.310978
H   51.873734   68.667152   17.639690
H   24.816383   92.648369   38.618111
H   33.843609   92.709274   84.289101
H   41.973331   38.829071   90.476822
H   25.236343   73.955849   39.070183
H   95.825867   38.092007   88.720314
H   57.643219   52.326523   90.524597
H    2.843380   44.124825   54.703949
H   42.152447   11.105928   45.939396
H    7.515374   93.754486   82.394753
H   18.242197   43.106407    6.551265
H   26.669525   84.376602   23.162756
H    8.644813   46.254829   72.011185
H   46.179817   12.421232   63.669312
H   39.073124   37.167198   76.986435
H   60.420624   78.828224   18.142616
H   57.797276   80.962997   24.465797
H    7.710209   14.202459   57.152710
H   40.447319    4.704967   10.176363
H   26.431412   89.561653    2.810478
H   12.375547   71.744194   99.905067
H   75.322365   77.148071   97.710365
H    7.364241   45.326832   60.592190
H   82.988678   46.132378   42.613792
H   78.374588   30.917248   26.545259
H   10.910725   69.226830   88.627052
H   76.953232   65.951736   96.940636
H   64.721954    0.733740   49.956123
H   82.877869   16.860678   87.818932
H   18.071350   86.916702   87.430893
H   97.978691   81.344009    8.385950
H   90.242477   62.504593   85.065468
H   56.571011   59.320663   52.755650
H   46.523796   18.220894   96.793625
H   56.100773   25.236689   49.399094
H   43.075253   70.204575   18.879551
H    6.878637   87.590744   66.453926
H   37.665874   58.010620   42.260014
H   32.905502    5.894874    5.803000
H   46.425407    2.731500   53.159878
H    1.329061    6.002458   81.257782
H   89.875801   10.388644   46.515068
H   63.720612   90.523827   53.626205
H   79.967148    1.114079   34.817421
H   49.288048    5.031643   87.011864
H   51.369343   89.824722   30.293484
H   78.548378   70.149582   14.415458
H   95.589149   83.591835    7.700684
H   69.401657   75.586166   58.568218
H   78.769516   64.942825   73.786049
H   19.917828   33.605186   13.308291
H   89.408463   63.020969   66.832718
H   51.467705   72.636513   63.028706
H   66.359566    3.647181   70.816071
H   56.176247   60.438354   88.658752
H   24.869175   72.940643   87.667458
H   62.005634   45.460434   11.215316
H    2.152302   11.184731    2.546917
H   93.526375   56.450520   34.235222
H   61.530170   37.493061   72.082291
H   72.444695    5.510957   78.141937
H   30.692905   88.395775    0.859042
H   23.690441   44.729385   57.340958
H   59.255398   35.280933   86.955574
H   95.030289   70.785957   86.010338
H   32.372894   93.516617   51.086170
H    7.215565   84.737015   67.558189
H   10.607247   10.954957   21.256920
H   77.318275   43.476952   96.321434
H   50.002693   60.509941   45.859421
H    8.388302   37.120804   72.954971
H   81.839790   51.907906   19.612570
H   55.886803    8.222864   31.200127
H   84.536972   48.464729   77.409187
H   17.379419   53.822376   46.173134
H   78.120506    8.700405   64.584518
H   37.702023   62.455414   51.830475
H   83.462418   13.819356   99.156082
H   47.342846   89.866035   45.462296
H   49.242516   93.564713   58.762150
H    6.759567   50.544647   46.746094
H   69.761162   24.001768   80.103928
H   26.292521   93.680389   54.234390
H   12.930512   63.614857   24.968178
H   24.876299   19.302277   99.607185
