100
TIME:    2.319, STEP:  2319
H   60.497711    9.357209   97.022903
H   36.763084   30.476839   24.281729
H   19.616331   40.741760   96.114403
H   81.865845   37.108177   13.050392
H   74.399979   58.635593    2.827831
H   92.057747   98.695747    8.403790
H   31.432060   17.927025   71.801674
H   37.617470   89.225128   95.270622
H   96.622490   63.330994   54.115139
H   11.468710   49.680763   98.497673
H   84.547302   59.552494   16.372004
H   67.332809   39.930023   27.859682
H   95.751228   21.404854   94.639488
H   40.257973   97.928047   33.717175
H    8.707348   62.884766   39.300171
H    8.282143    8.900914   40.544693
H   37.623306   35.356178   84.492661
H   50.700661   81.927574   19.149754
H   81.383339   75.639191   85.536484
H   30.040764   56.565769   74.220955
H   26.663879   25.353481   94.302353
H   84.705139   47.162491   21.793976
H   54.782036   75.761940   66.000946
H    3.581291   64.494476   34.845009
H   46.642693    2.256836   53.671806
H   36.025753   58.508060   71.811363
H   62.109871   46.079731   45.984386
H   36.871521   64.682793   43.425999
H   61.595215   59.489723   47.551445
H   89.914635   33.444962   67.742455
H    7.325500   30.003130   25.909660
H   12.180176   88.441109   84.582634
H   33.704571   98.813713    6.710789
H   76.084297   61.200241   74.055450
H   23.128086   83.621429   65.937935
H   74.182419   66.655022   12.668035
H    2.221692   19.609404   91.193542
H   68.140816   16.509785   86.086906
H   47.188210   30.888319   19.583826
H   44.769344   95.085899   20.487890
H   76.762520   35.753963   96.979172
H   23.202698   15.934962   11.750162
H   31.215742   77.406296   68.976189
H   31.274786   51.638107    7.473876
H   55.498775   40.394382   54.554298
H   48.169270    7.148151   92.586250
H   59.847805   50.953094   47.717178
H   56.363262   19.259619   12.064461
H   32.816414   40.389469   51.969513
H   74.522820   66.045036   21.471035
H   43.367695   45.759285   77.868011
H   17.831743   48.553616   21.823544
H   56.984901   35.455078   68.187096
H   22.991138   69.373161   34.146698
H   56.145592   61.801945   20.083632
H   96.467819   10.094791   13.682571
H   43.265705   22.633507   76.543602
H   53.379242   57.886749   53.823929
H   73.170769   36.752743   33.452087
H    5.989558    6.033171   97.652718
H    5.984607   70.726265   33.588207
H   16.606972    6.358452   90.426590
H   31.528717   49.015129   74.465744
H    2.280421   54.409279   64.183281
H   24.366474   75.629974   11.524777
H   58.885384   26.988564   83.302727
H    1.510359   28.537195   79.023331
H   20.176765   50.163574   77.064209
H   72.482018   83.157784   14.788093
H   77.365784   64.783760   96.849976
H   48.394188   37.615288   34.332951
H   82.754761   74.561935   26.407633
H   55.788681    3.600544    2.285062
H   79.156456    2.627945   65.383492
H   73.978783   31.943361   77.193710
H   80.481575   56.199867   39.890240
H   77.505615   25.551081   32.062733
H   40.931164   99.086433   42.510273
H   72.715897   46.707096   43.551857
H   85.797157   82.656845   21.137154
H   56.263172   53.272778   18.590000
H   15.319986   59.372391   92.863747
H   64.526108   45.964020   50.773136
H    9.695804   10.601412   51.614807
H   39.413895    3.828526   22.951279
H   97.916626   94.234856    2.821552
H   22.035498   34.742737   34.122269
H   93.286484   19.629593   71.630531
H    3.807604   65.053932    9.227406
H   61.308651   13.864342    7.117432
H   18.925690   98.651581   82.434769
H   49.872143   69.913383   77.709023
H   34.074940   97.119064   98.319016
H   71.368599   53.898151   83.176506
H   16.496872   42.008102   69.374962
H   85.461456    4.157080   47.669662
H   78.531174    0.763339    3.821517
H   15.379712   35.982574   18.930637
H   98.241814   46.846592   50.798065
H   83.259048   19.137733   74.332794
