100
TIME:    6.928, STEP:  6928
H   48.809647   86.690163   92.803238
H    9.142204   80.282478   14.937430
H   98.856018   72.332130   42.018070
H   82.639450   47.217316   60.416981
H   33.117584   28.067091   77.859039
H   20.583385   93.702477   64.850174
H   89.873795   29.149288   32.231777
H   75.359154   87.962097   72.088539
H   83.324409   20.194565   63.995426
H   85.531227   15.860792   78.976967
H   55.829346   45.005573   72.408806
H   91.417557   70.955505   99.786995
H    1.976669   42.638531   36.620537
H   12.048267   83.721840   84.463905
H   64.753487   51.189720   17.735653
H   22.964108    5.780760   57.956543
H   66.998543   40.203762    4.071526
H   49.219563   57.722534   59.363853
H   53.169308   68.993118   28.355930
H    5.866920   58.686031   88.023094
H   53.159378   66.513885   69.202782
H   26.574448   53.281006   29.295059
H   93.243416   38.277245   34.133194
H   75.347435   19.707247   92.539810
H   81.799629   36.735214   87.704750
H   14.941158   21.863167   38.927254
H   64.670815   54.489662   37.430630
H   47.976837   79.815331   95.774521
H   61.813591   77.654457   29.681128
H   66.643417   19.372124   34.144249
H   88.715706   43.302605   61.257698
H    3.195502   61.095196   57.904396
H   58.357059   61.596825   21.925909
H   70.826210   38.812790   79.886017
H    8.537025   35.123207   46.557274
H   74.876945   28.059746   97.645027
H   44.284180   50.817505   54.364597
H   77.644600   32.167034   11.331901
H   52.640644   30.465960   72.937729
H   10.653633   63.608120   83.115463
H   61.771805   93.900764    5.565998
H   16.360016   68.771301   33.647076
H   70.909637    5.046951    1.891537
H   36.967175   28.928854   58.118004
H   55.702354   58.546574   48.958073
H   88.697166   95.057846   11.306997
H   95.859665    1.605574   91.966270
H   56.610470   66.726135   97.243332
H   67.539803   58.672039   68.115250
H   71.194092   36.182026   99.125679
H   43.025883    0.789440   26.457817
H   41.828228   20.871986   19.256386
H   52.581043   62.179626    0.500685
H   16.256905   94.164719   37.529068
H   89.176926   65.742699   59.276249
H    2.224575    5.246140   56.781326
H   35.456806   89.641731   14.898026
H   10.182763   22.623499   35.107040
H   36.673439   31.497784   79.621651
H    1.843248   60.298367   66.561790
H   96.723747   56.386154   74.233902
H   53.029671   63.457230   81.884277
H   44.402714   34.529213   58.396698
H   18.772621   79.502838   39.045200
H    7.306142    7.516016   40.743793
H   75.749512   97.862053   55.821274
H   31.722567   87.881195    1.545287
H    1.801281   13.756896   97.401062
H    2.191352   51.984436   25.720318
H   70.742882   96.599541   87.144745
H    2.036326   24.020645   79.044197
H    2.745850   21.585140   63.869423
H   55.272812   75.621307   84.114807
H   77.695122   10.946739   91.515808
H   96.198357   38.518856   26.587803
H   89.438881   51.593395   29.763277
H   95.992767   26.164532   13.610537
H   57.470364   97.714912   97.046181
H   93.736717   33.169003   94.975426
H   59.769272   31.619213   24.067680
H   46.443291    0.955221   94.059845
H   61.167259   89.399857    7.408290
H   56.087814   22.978674   89.730789
H   26.785336    5.002825   30.651402
H   14.993299   15.534028   76.160515
H   91.841476   63.533653   22.884720
H   29.860247   99.630424   53.897163
H   67.450310   50.688915   23.745285
H   99.457626    8.432653   71.528694
H   53.811085   24.238888   71.874542
H    7.545053   47.523178   79.768478
H   90.900742   16.531288   65.528465
H   29.551517   35.393963   54.757454
H   16.831379   33.486534   93.943451
H   36.812294   29.161568   75.284576
H   66.145981   22.152472    9.608788
H   12.690508   65.263428   38.753967
H   24.904680   29.257187   39.801949
H   78.679192   66.718987   64.745720
H   69.534721    0.851937   30.344158
