100
TIME:    1.635, STEP:  1635
H    6.754271   72.083511   97.649124
H   55.789757   93.391853   81.135582
H    7.859030   91.532921    4.142449
H   81.751038   65.288109   50.544140
H   80.526505    3.809973   21.372719
H    2.662520   99.436775   40.665310
H   67.278496   71.741570   18.311989
H   91.378517   30.050266   58.074615
H   13.436577   29.094910   97.169014
H   30.158789   39.859535   71.716301
H   48.171310   32.030094   82.257706
H   93.435776    5.644836   76.548119
H   39.259972   62.787605   62.622353
H   74.126076    0.036332   81.664436
H    0.386899   23.982265   72.180679
H   35.785080   68.728020   97.322037
H   92.615921   90.122147   22.218103
H   36.083626   15.190809   42.864059
H   70.727150   46.944740   49.499584
H   48.467308   71.091415   27.651011
H   67.253418   93.447510   12.867970
H   19.122440   46.257950   80.038063
H   63.914421   81.324867   85.570343
H   67.132301   56.290989   85.644943
H   71.107048   56.503204   48.625511
H   39.162075   78.890137   35.924042
H   21.090542   74.513443   32.411053
H   94.585739   32.755978   20.816355
H   46.722473   97.432281   79.885307
H   63.686428   50.373795   13.366519
H   80.418007   68.663559   80.032623
H   68.992096    7.340764   47.903923
H   85.524979   48.857613   45.090668
H   47.184212   23.884621    2.871874
H   40.131340   35.326790   24.288795
H   14.711564   12.921247   15.018971
H   36.616928   44.659523   37.296818
H   96.414680   29.028980   37.818562
H   77.217789   45.605568   85.419968
H    9.195066   59.120808   66.673660
H   23.507271   12.284152   80.864426
H   84.676697   85.237511   79.615204
H   25.324049   73.304550   19.571411
H   74.953636   40.173050   40.595623
H   14.831764   67.379929   96.021072
H   56.993763   94.101906   89.810005
H   53.344166   13.938994   41.594185
H   56.326733   12.217245   69.742470
H   12.824315   97.039391   79.254166
H   60.180973   55.635143   69.309654
H   43.419880   11.794710   70.656036
H   84.591255   12.022928   66.728470
H   42.795784   31.489014    7.910908
H   38.829304   80.530327    3.965284
H   10.597031    1.837341   14.280266
H   95.611984   10.813641   36.967545
H   99.904648   42.369896   11.489616
H    4.311760   22.482082   71.441605
H   19.226189    7.850844   85.963730
H   51.124676   53.460300   17.106285
H   62.837811    2.537961   86.918358
H   40.881805   12.726334   21.375427
H   85.134003   95.658134   21.390968
H   55.312752   50.688484   82.750725
H   97.217323   30.259029   47.825901
H    0.904775   60.992348   42.859310
H   56.389603    4.890063   46.000622
H   67.425117   11.044259   44.365055
H   38.390816   32.305649   57.689392
H   63.505615   30.378397   98.290283
H   70.113609   84.155113   42.538181
H   39.153866   97.262436   76.329399
H    0.386053   37.432117   19.824429
H   94.206627   45.914001    6.035683
H   41.001465   30.970110   25.342297
H   64.314644   12.360369   85.914726
H   15.402010   84.836411   19.963640
H    8.795604   43.812363    4.733840
H   39.923134   48.712742   35.920631
H   19.342178   19.907961   80.064522
H   42.877705   46.196484   77.708931
H   64.000031   54.905350   50.060013
H   21.249104   34.545929   85.625610
H   62.644695   52.070660   14.090767
H   72.718399   46.614685   89.257614
H   13.659840   69.112968   55.322655
H   76.352669   84.475098    1.506130
H   82.275436   74.392593   78.748131
H   89.612740    3.138453   14.822948
H   21.782196   42.007744   82.664513
H   90.933449   61.715321   67.989944
H   99.260399   18.473475   64.673195
H   90.189186   76.620773   45.403366
H    5.256116   12.407044   37.058403
H   28.324615    3.275487   53.656822
H   28.965912   31.166029   82.998947
H   32.823349   61.509762   43.158951
H   12.868306   30.158722   29.876453
H   30.824337   43.898136    8.095402
H   40.780411   36.706532   40.212227
