100
TIME:    6.939, STEP:  6939
H   48.065750   85.681404   92.793167
H    8.838444   80.878502   15.631015
H   99.045181   73.123528   41.888912
H   82.641296   46.764130   59.813992
H   33.019058   28.948790   77.560776
H   20.412769   93.690559   65.939499
H   89.297241   29.892094   33.091991
H   74.494576   88.913788   71.078606
H   83.054008   19.136963   63.302975
H   85.230782   16.018755   79.407661
H   54.806152   45.448185   71.349190
H   90.997772   71.506882   99.003990
H    1.274732   41.973270   35.527519
H   11.503626   83.687935   85.300957
H   64.887093   50.207146   17.206684
H   22.521790    4.818642   57.043457
H   66.113991   40.931293    5.072899
H   49.454800   57.187271   58.982590
H   53.340595   69.454529   28.935421
H    5.570587   58.452473   88.772026
H   52.506622   65.418854   68.904182
H   27.629028   53.295609   28.358307
H   93.096550   38.187782   33.818481
H   74.325417   19.838839   91.722900
H   81.406197   35.862831   87.785988
H   14.889294   21.538929   37.892059
H   63.722286   54.032364   37.648914
H   47.048729   80.328773   96.138077
H   62.052773   78.652473   29.161180
H   67.065216   19.099876   35.018730
H   89.148582   44.288956   60.387413
H    3.890041   60.791309   56.886070
H   59.131924   60.792000   22.916876
H   71.290977   37.804703   79.422592
H    8.263247   34.290352   47.226562
H   75.833168   28.921345   97.610451
H   45.339180   50.414673   55.231358
H   77.189903   31.965702   12.108108
H   52.176296   30.226316   71.871735
H    9.617558   62.578297   83.980881
H   61.020020   94.278252    5.825132
H   15.432985   68.814438   34.208607
H   71.004303    5.112936    2.686060
H   36.264820   29.113485   59.193481
H   54.748230   58.112606   49.899357
H   88.555168   95.267654   11.351686
H   95.945602    2.203815   92.071846
H   56.611141   66.839432   97.923950
H   67.861397   57.761051   67.676498
H   71.425049   36.349453   98.356606
H   43.025127   99.727448   26.573757
H   42.362904   19.851227   18.534309
H   52.809231   62.243408   99.861824
H   16.002197   93.985291   38.014481
H   88.301102   66.706642   59.369823
H    2.238275    5.234569   56.406860
H   36.154125   89.324333   15.944235
H    9.363692   21.584654   34.823715
H   37.540955   31.962635   78.777214
H    1.117374   61.143894   66.248924
H   97.417625   55.874641   73.376205
H   52.639259   63.354843   81.386612
H   45.149548   33.778603   57.642395
H   19.527973   79.562759   38.746517
H    7.742764    6.637454   41.768162
H   75.073761   97.315208   56.471680
H   30.839987   88.261536    2.076391
H    1.041418   14.386027   97.926926
H    2.739608   51.194046   25.030384
H   70.965782   97.152763   87.121582
H    1.687009   23.272217   78.912270
H    1.840595   21.219109   64.675591
H   54.555603   75.077316   83.832825
H   77.452919   10.250553   90.862213
H   96.728752   38.534550   27.421707
H   89.698875   52.298435   29.023115
H   96.991791   25.212421   13.805616
H   57.987164   96.995689   97.653618
H   94.264259   33.136692   95.098122
H   59.229813   31.019958   23.120018
H   46.658554    1.069048   94.717300
H   61.992645   89.471191    6.488039
H   56.783623   23.162634   90.778320
H   27.542114    5.944130   29.646755
H   14.457701   14.845920   75.094185
H   91.588364   63.937744   23.648590
H   30.594912   98.830635   54.421684
H   67.627220   49.808643   23.631233
H   99.685898    7.820202   71.438728
H   52.838497   23.786289   72.267807
H    7.995228   48.117104   80.000778
H   91.714630   17.358562   65.738106
H   30.256641   35.724033   55.608101
H   17.894478   34.153893   94.685165
H   36.622124   28.176224   75.537354
H   67.054535   21.718126    9.040606
H   11.817390   65.894699   38.121353
H   24.883448   29.801472   39.581146
H   78.155174   66.766487   63.824390
H   70.218025    0.569670   29.284458
