100
TIME:    7.345, STEP:  7345
H   20.609850   48.449043   92.421463
H   97.626389    2.877543   41.231144
H    6.024680    2.333163   37.121807
H   82.709442   30.037262   37.558208
H   29.381437   61.491482   66.552139
H   14.115714   93.250710    6.145748
H   68.017181   57.308369   64.841721
H   42.583778   24.037998   33.800369
H   73.073753   80.101532   37.745220
H   74.141609   21.848314   95.304207
H   17.041016   61.784580   32.242241
H   75.503906   91.857681   70.103996
H   75.383415   17.402599   95.180946
H   91.401100   82.436531   16.197361
H   69.818367   13.941216   97.682404
H    6.196279   69.308411   23.341887
H   33.465981   67.784256   42.032681
H   58.137188   37.431198   44.910492
H   59.662663   86.484772   50.323895
H   94.631668   49.832035   16.414316
H   28.414001   24.999237   57.884876
H   66.552643   53.834579   93.783707
H   87.675865   34.885811   22.201422
H   36.601395   24.695772   61.571251
H   66.884956    3.663963   90.784401
H   12.975018    9.571606   99.684990
H   28.711004   37.153900   45.705601
H   12.792302   99.279488    9.558248
H   70.880745   15.488008    9.970407
H   82.633423    9.050940   67.295036
H    5.126371   80.695694   28.265984
H   29.524929   49.575138   19.300591
H   87.728889   31.086695   59.492561
H   88.445122    0.597381   62.318008
H   98.158745    3.550476   71.928406
H   11.126148   60.720779   96.334267
H   84.279892   35.546509   87.222687
H   60.408127   24.534718   40.757202
H   35.037640   21.381308   32.526855
H   71.375816   24.568758   15.923425
H   33.272308    8.209317   15.389544
H   81.217293   70.406570   54.934208
H   74.498322    7.548372   32.010769
H   10.341387   35.928062   98.891106
H   19.531815   42.095257   84.641304
H   83.314140    3.010986   13.001123
H   99.117477   24.284500   95.968544
H   56.635921   71.021103   23.044491
H   79.731148   24.137318   51.480194
H   79.949463   42.529034   69.970802
H   42.997250   60.531250   30.853001
H   62.095638   82.177521   91.883118
H   61.231426   64.597534   76.283394
H    6.601181   87.362762   55.930618
H   55.975235    2.285068   62.823574
H    2.743948    4.807496   42.585663
H   61.891537   77.609459   54.558098
H   79.132004   83.242577   24.365309
H   69.559624   49.119877   47.609825
H   74.323799   92.348740   54.701317
H   23.028948   36.995171   41.721588
H   38.229530   59.575851   63.018066
H   72.713524    6.073085   29.801758
H   47.408184   81.774399   27.722393
H   23.857693   74.212067   79.576668
H   50.132416   77.131676   80.477570
H   98.264923    2.299236   21.679037
H   72.996315   37.606316   17.336075
H   22.975380   22.021469   99.566071
H   79.197899   17.565599   86.264969
H   88.794930   95.647964   74.042946
H   68.423683    7.716640   94.432198
H   28.083845   54.997707   73.425110
H   68.513435   84.554138   66.738617
H   16.287394   39.130306   58.204517
H   99.295036   78.319115    1.704744
H   33.865925   90.071846   21.005835
H   77.061783   70.449821   20.075891
H   13.733603   31.944141   99.626717
H   39.318863    8.902265   88.142952
H   54.605400    5.269753   18.983505
H   92.459785   92.104095   72.520836
H   82.463051   29.952429   29.443794
H   55.472828   40.687008   92.565300
H   94.689240   89.447533   35.736916
H   82.246201   78.849289   51.842346
H   57.710728   69.311134   73.781273
H   74.156822   17.319307   19.421684
H    8.112313   85.214699   68.118172
H   16.941824    7.081287   86.782852
H   24.610401   70.039207   88.574753
H   21.754519   47.893311   73.475746
H   56.282124   47.906635   87.004707
H   57.131500   58.785484   22.060831
H   29.602581   91.808853   84.867126
H    0.588446    5.686396   88.069969
H   79.590935   89.194351   14.771037
H   24.099771   49.889149   31.431425
H   58.814171   68.519691   29.816563
H   95.438148   90.149673   90.172928
