100
TIME:    3.263, STEP:  3263
H   96.659332   22.787498   96.158646
H   10.503674   81.659912   83.829086
H   35.842773    8.657584   85.037498
H   82.024292   98.213615   61.308521
H   65.944656   34.301342   77.231598
H   77.422981   97.673042    1.891302
H   81.956032   81.671242   45.623787
H   63.420929   70.892136    8.595518
H   73.417168   72.569214   94.692314
H   85.672218   63.235207   35.465843
H   96.738724   97.536621   25.441133
H   31.301125   87.248138   60.665047
H   35.703110   64.291336    0.813791
H   93.516640   95.018379    5.554966
H   20.191174   78.563126   93.922432
H   70.326187   26.335297   62.183937
H   61.716103   97.793625   70.432114
H   70.871422   36.021080   86.421082
H   96.090126   15.239200   35.269527
H    4.609978   36.522190   38.492821
H   70.645676   31.375458   68.677109
H   75.207336   48.415665   41.403671
H   42.178276   68.084450   38.992889
H   15.873489   75.816254   64.736046
H   12.880895   27.387039   60.637794
H   31.697008   30.383463   83.329948
H   80.707092    6.837140   64.716896
H   57.218624    8.745499   74.630455
H   82.121338   45.136642    2.929190
H   26.110786   10.080735   42.787384
H   44.475269   14.655337   51.220772
H   71.785042   62.355385   97.191826
H    0.198101   29.745228   91.753761
H   15.970525   74.688301   34.285187
H   99.660919   12.262448   23.422562
H   56.259487   40.810825    9.423467
H   92.763313   85.037094   65.576958
H   29.126015   99.232536   52.701412
H    7.339099   10.322584   28.102999
H   55.854633    6.711711   94.760109
H   12.249056   68.142944   19.220564
H   38.361320   58.305199   56.099518
H   39.346966   83.067184   37.163624
H   70.994553   67.459656   99.773155
H   73.613823    3.151462   35.335018
H   35.990437   25.153522   96.417793
H   67.226852    2.290141   56.784683
H   56.413677   28.978918   70.473885
H   60.407845   62.206764   14.311090
H   94.314323   80.406120   55.444935
H   43.295673   54.622055   87.821381
H   63.708317   60.958076   59.853329
H   76.562920   40.928711   13.358913
H    1.132618   53.970276   75.803925
H   80.988144   44.545334   28.100668
H   97.648972    9.102362   81.546585
H    3.112774   95.393990   66.325890
H   83.086662   68.737503   29.509106
H   47.622002   76.638245   60.982037
H   43.693909   78.593369   70.803108
H   65.533241   26.828068   59.985546
H   83.104362   97.570541   47.715103
H   95.585121   84.621635    9.716782
H   67.105034   59.544411   38.550884
H   61.838520    0.233027   99.437660
H    0.894063   80.059486   39.117828
H   25.772202   61.170513   24.600348
H   54.968071    4.151118   22.192869
H   19.528946   15.327950   55.584034
H   96.494690   12.261572   94.862183
H   18.417213   73.385155   23.006832
H    4.918378   43.232590   95.523071
H   94.237335   56.903461   78.085197
H   58.383511   42.890579    9.278755
H   19.494345   33.290012   48.755772
H    2.794567   16.699953   76.370361
H   63.215214   43.731750   48.757313
H   85.281998   37.360912   94.642395
H   17.986258   43.934269   54.088600
H   39.501747   31.243374   39.810776
H   74.732498   63.038891   75.010773
H   86.150848   65.537430   13.927374
H   24.248785   61.722321   40.684452
H   74.638580   91.380707   65.391205
H   93.447784   44.782581   31.441078
H   76.194946   28.909042   68.375809
H   85.083107   66.106239   79.135696
H    8.481009   44.050613   61.808411
H   23.400139   12.493870    1.504159
H   77.845917   75.027786   40.861702
H   57.558014   49.623531    2.370363
H   19.721457   40.901520   95.699989
H   94.619339   25.422979   71.337242
H   62.610096   11.157295   46.825500
H    0.173609   57.450825   91.067833
H   63.432007   66.878975   98.910530
H    3.601091   54.937420   49.531624
H   18.844267   44.020172    3.825583
H   53.271599   50.915806   71.727058
H   41.887905   94.900795   83.404694
