100
TIME:    3.253, STEP:  3253
H   97.335602   23.704552   96.167801
H   10.781860   81.117767   83.198288
H   35.670883    7.938170   85.154839
H   82.022614   98.625603   61.856693
H   66.034225   33.499798   77.502747
H   77.578011   97.683876    0.900952
H   82.480171   80.996040   44.841774
H   64.206909   70.026962    9.513697
H   73.662987   73.530670   95.321739
H   85.945503   63.091621   35.074226
H   97.668900   97.134247   26.404383
H   31.682823   86.746887   61.376869
H   36.339172   64.896347    1.807696
H   94.011787   95.049202    4.793934
H   20.069523   79.456375   94.403084
H   70.728256   27.209930   63.014015
H   62.520241   97.132156   69.521774
H   70.657799   36.507378   86.767761
H   95.934334   14.819659   34.742718
H    4.879372   36.734516   37.811974
H   71.239090   32.371017   68.948563
H   74.248627   48.402390   42.255264
H   42.311790   68.165779   39.278992
H   16.802597   75.696320   65.478691
H   13.238542   28.180115   60.563942
H   31.742899   30.681429   84.267296
H   81.569366    7.252837   64.518532
H   58.062359    8.278732   74.299950
H   81.903900   44.229355    3.401874
H   25.727371   10.328252   41.992401
H   44.081669   13.758636   52.011940
H   71.153633   62.631645   98.117577
H   99.493744   30.476849   90.852882
H   15.547990   75.604744   34.706482
H   99.909485   13.018388   22.813660
H   55.390041   40.025227    9.457837
H   91.804146   85.403305   64.788994
H   29.539299   99.415489   51.995770
H    7.761224   10.540442   29.072046
H   56.796482    7.647895   93.973366
H   12.932459   67.799774   18.984968
H   39.260063   57.856361   55.629700
H   39.260830   83.007217   36.441349
H   71.633133   67.292114   98.795372
H   74.481285    3.545992   34.479305
H   36.119450   24.962788   96.377205
H   67.148727    1.746285   56.688629
H   56.413143   28.875959   69.855141
H   60.115562   63.034935   14.710011
H   94.104668   80.253990   56.144321
H   43.296436   55.587479   87.715942
H   63.222324   61.886040   60.509838
H   76.355553   40.870728   13.939701
H    1.364170   54.133469   75.362640
H   81.784348   43.668945   28.015638
H   97.636459    9.112890   81.887009
H    2.478828   95.682533   65.374809
H   83.831291   69.681870   29.766712
H   46.833351   76.215729   61.749783
H   44.353775   77.824783   71.087532
H   64.902443   27.293079   60.765194
H   83.459282   97.663620   48.167603
H   94.906258   85.304008   10.402512
H   66.418388   59.490013   38.822414
H   61.441563    1.031720   98.506416
H    1.508370   80.556618   38.526550
H   26.574547   60.824825   24.117521
H   55.658836    3.579186   21.714811
H   19.030518   16.046486   56.211246
H   96.292053   11.758585   94.883240
H   18.734787   74.065544   23.126804
H    5.742916   43.564468   94.790955
H   94.889343   57.398075   78.341545
H   58.603619   43.523438    9.873085
H   19.012205   33.275745   47.997715
H    2.558147   16.059046   77.043274
H   62.307240   44.598526   48.580463
H   84.812180   38.014828   94.090179
H   17.506750   43.963642   53.976982
H   39.992165   31.787998   40.672287
H   74.536880   62.935436   74.413086
H   85.400574   65.472122   14.763594
H   23.616079   61.555389   39.731998
H   73.950562   90.524994   66.304596
H   93.934692   45.408115   32.410469
H   76.425049   28.541725   67.681381
H   84.415230   66.833321   78.658859
H    8.320066   44.851242   61.912399
H   23.192581   13.050644    1.585973
H   78.730011   75.439163   40.504265
H   57.148773   49.083599    2.159177
H   18.981520   40.149490   95.509407
H   93.978317   25.122915   70.563927
H   61.643528   10.550720   46.151291
H    0.346522   58.346592   90.838036
H   62.606049   67.273872   99.427040
H    4.394832   54.363537   50.106728
H   18.807570   43.935028    3.985590
H   53.747978   50.872700   72.564613
H   41.266796   95.157448   84.367981
