100
TIME:    7.267, STEP:  7267
H   25.884455   55.602058   92.492874
H   99.780624   98.650841   36.312702
H    4.683862   96.721550   38.037655
H   82.696350   33.250946   41.833950
H   30.080374   55.239437   68.667099
H   15.325389   93.335213   98.421188
H   72.105469   52.041203   58.742016
H   48.714424   17.290241   40.962311
H   74.991142   87.600891   42.655331
H   76.272041   20.728350   92.250191
H   24.296387   58.646061   39.755287
H   78.480560   87.947922   75.656212
H   80.357201   22.123470    2.932493
H   95.263252   82.676949   10.261311
H   68.870979   20.908562    1.433665
H    9.332672   76.130554   29.816793
H   39.738258   62.624958   34.932034
H   56.469143   41.226700   47.613998
H   58.448078   83.212952   46.214779
H   96.733536   51.488178   11.103708
H   33.042633   32.764603   60.001621
H   59.074707   53.731033    0.426125
H   88.717278   35.520180   24.433317
H   43.849030   23.762667   67.364136
H   69.674751    9.849953   90.208351
H   13.342785   11.870747    7.025275
H   35.437191   40.396561   44.157764
H   19.373657   95.638710    6.979860
H   69.184731    8.411314   13.657305
H   79.642487   10.981569   61.094170
H    2.056459   73.700974   34.437096
H   24.599941   51.729969   26.521446
H   82.234993   36.793587   52.465706
H   85.149498    7.745546   65.604111
H    0.099946    9.456123   67.183136
H    4.345850   54.611557   96.579445
H   76.798386   38.402954   81.076569
H   63.631744   25.962345   35.253189
H   38.330288   23.080595   40.085724
H   78.722832   31.870844    9.786530
H   38.603149    5.533117   13.552046
H   87.790688   70.100693   50.952442
H   73.827057    7.080481   26.377026
H   15.321867   34.618858   91.264397
H   26.297722   45.172482   77.966743
H   84.321037    1.523508   12.684237
H   98.508102   20.042381   95.219917
H   56.631161   70.217728   18.218288
H   77.450752   30.597050   54.591934
H   78.311768   41.341824   75.424232
H   43.002605   68.061554   30.030880
H   58.304897   89.415039   97.003296
H   59.613369   64.145264   80.813240
H    8.407288   88.635071   52.488602
H   62.185623   95.449684   62.160046
H    2.646799    4.889544   45.240967
H   56.946911   79.860100   47.139671
H   84.940109   90.608635   26.374640
H   63.408691   45.823658   53.597649
H   79.471352   86.353775   56.919823
H   18.108423   40.622261   47.802841
H   40.997902   60.301865   66.547134
H   67.418388   11.395743   35.150452
H   42.051754   81.349503   29.840328
H   20.761723   80.441498   72.312965
H   54.924103   81.009300   75.865601
H    4.523103   99.602600   17.912992
H   78.384285   33.145500   13.607223
H   19.087639   27.626053    4.458165
H   77.613762   13.648014   86.430405
H   91.271706    0.955026   74.978432
H   74.847115   10.306632   88.714546
H   33.169739   58.855694   75.424622
H   70.230873   89.491028   71.373199
H   12.530274   39.015453   52.290485
H   97.451439   73.320335    6.953074
H   26.781723   96.822578   19.622541
H   73.397202   75.549767   15.768023
H    9.993297   32.173252   98.756691
H   43.144119   13.151376   94.862740
H   53.078392    4.462808   14.321494
H   86.606453   91.598267   79.046623
H   77.529732   28.647985   22.015251
H   50.106876   34.012447   99.689751
H   98.487122   94.327293   43.298164
H   84.041000   75.984512   46.425812
H   52.501286   74.982368   70.061943
H   72.902367   23.560938   20.230415
H    6.493433   89.557686   68.756111
H   23.838057   10.290623   83.994247
H   21.418324   65.827141   86.927536
H   15.983309   42.026886   71.989204
H   51.282154   45.566135   80.972847
H   49.593460   54.053307   16.801401
H   30.951359   98.795242   83.074707
H   94.145966    8.766391   92.098747
H   85.782280   84.718063   19.257103
H   24.250330   46.029972   32.997223
H   62.529930   68.182869   36.350086
H   90.592903   92.151566   97.686569
