100
TIME:    0.358, STEP:   358
H   93.112709   89.190956   98.818253
H   91.311775   24.154915    0.583085
H   85.915375   99.660210   19.136360
H   81.536697   17.900541   20.539717
H   91.964478    1.452800   55.998222
H   22.464920    0.824012   14.199202
H   34.208004   85.511467   18.448839
H   91.748199   19.573910   75.324196
H   44.827675   51.873184   77.552895
H   65.057014   21.526489   21.708338
H   66.954742   80.647507    5.265457
H   42.177334   41.635262   67.446220
H   20.490345   40.047989   89.546684
H   37.355824    3.973471   84.483986
H   84.856880   38.044991   33.563320
H   87.129303   80.424324    3.322705
H   95.283897    5.672137    5.950139
H    8.794864   77.291046   87.135056
H   50.838928   93.370819   82.223297
H   82.958656   98.025818   40.611504
H   43.032318   20.577110   47.525574
H   96.675087   44.572456   88.772469
H   80.964211   91.710625   22.107491
H   85.779434   40.975407   80.486984
H   16.779406   57.782429   39.202103
H   45.017460   16.942265   55.617531
H   31.207666   27.594997    7.070240
H    2.334523   73.149414   78.608597
H   18.955673   81.572685   40.248871
H   14.721087   81.979233   11.848740
H   30.184450   54.146156   81.082817
H   88.361786   42.619789   66.122231
H   95.574402   42.288887   30.048422
H   93.228218   40.914062   56.669121
H   71.873177   31.858231   46.527489
H    3.681468   12.608385   19.412504
H   14.136212   91.424660   36.674206
H   49.192474   52.401806   47.703762
H   34.625706   72.865746    7.813592
H   29.474167   78.668831   66.201897
H   10.776981   68.462898   50.774570
H   99.446159   27.924601   19.619436
H   14.324870   65.646759   27.332157
H   56.498550   18.771269   15.735260
H   25.601959   17.766911   86.742249
H   73.379204   69.934135   84.722191
H   39.860218   45.053547   30.682318
H   56.258533   99.068924   90.728973
H   75.493279    2.800465   30.192801
H   33.398190   36.198383   58.624748
H   43.517307   35.081352   57.191578
H   22.530764   30.518883   50.560768
H   16.305285   24.084534   82.078407
H   68.397064    1.360789   47.613605
H   12.258642   89.888947    3.443938
H   94.014175   12.155703   80.439636
H   18.947929   79.216927   90.036140
H   99.401550   43.078117    4.333414
H   18.512009   53.895172   83.999924
H   35.394135   55.305809   53.427208
H   82.283401   61.920494   86.483246
H   86.205017   24.613144   79.157043
H   98.515236   82.740395    8.997821
H   67.623665   43.741913   17.420279
H   46.532249   32.250980   28.900702
H   79.352913   24.475880   67.353615
H   58.845726   60.737385   84.346176
H   55.636299   38.012070   83.317070
H   74.745872   24.062721   37.779598
H   37.638649   66.151512    0.977945
H   10.663939   71.046227   57.853764
H   44.448063   39.644264   82.833015
H   83.649246    0.599827   52.569767
H   22.311096   26.724421   81.931602
H   79.431808   29.153090   28.537106
H   34.122005   30.516638   71.839859
H   99.458618   95.515251   97.368103
H   48.799820   27.311657   34.211262
H   78.713066   52.453243   21.680283
H   81.968491   89.456947   90.079224
H   17.887585   32.985332    1.385842
H   68.185066   46.565567   56.844498
H   40.447598   13.232795   63.997589
H   74.797577   42.796116   30.730812
H   34.898544   26.490540   13.048287
H   43.053677   22.203773   66.643852
H   91.064720   77.323402   40.613979
H   61.718262   76.631721   92.017738
H   63.112495   74.239403   25.271759
H   34.683998   94.555984   37.010052
H   38.673405   92.762817   41.022045
H    4.775084   22.430990   40.345314
H    8.254181   38.357834   46.610832
H   81.829994   34.947754   50.956059
H   50.402470   17.661770   24.312977
H   23.490952   81.594353   48.957832
H   34.185631   88.225395   16.600136
H    8.179614   19.285828   50.307480
H   91.657890   38.393490   15.064274
H   61.474499   69.508690   63.205551
