100
TIME:    0.113, STEP:   113
H    9.680930   11.658599   99.042557
H   98.126884   10.871433   85.128540
H   81.705933   82.033638   22.013062
H   81.495575   27.995165   33.969131
H   94.158920   81.814972   62.641365
H   26.264072    1.090665   89.936150
H   47.047550   68.969032   99.289230
H   11.004721   98.378601   97.818169
H   50.850243   75.428864   92.973808
H   71.752495   18.009586   12.113726
H   89.744049   70.789337   28.865063
H   51.528950   29.354607   84.885872
H   36.074570   54.870758   13.897902
H   49.486942    4.728862   65.840569
H   81.877373   59.927734   45.341160
H   96.979370    1.853639   23.659885
H   14.981113   89.469978   83.643227
H    3.559509   89.205338   95.628708
H   47.023888   83.093948   69.314590
H   89.590584    3.162962   23.897104
H   57.570969   44.968323   54.174324
H   73.182961   44.249084    9.633499
H   84.235313   93.703194   29.117931
H    8.542652   38.037022   98.681793
H   25.541288   77.211510   37.392715
H   46.136845   24.246433   78.579369
H   52.335217   37.779873    2.208681
H   23.006088   61.713634   70.511215
H   13.628240   59.344143   51.830444
H    5.326948   88.042923   92.372154
H   20.546846   32.175560    0.470174
H   72.892273   49.388168   88.803123
H   78.317932   60.214531    7.976887
H   82.876579   63.366913   66.990852
H   77.963036   50.378281   31.609390
H   82.379906   93.362480   20.255514
H   90.637871    0.396236   17.368759
H   59.317940   56.886021   30.415514
H   45.640911   78.095772   31.296211
H   52.549564    1.604032   46.925034
H   27.519421   60.056103   45.000607
H   21.465378   16.928087    8.109212
H   12.215009   64.177567    9.635658
H   72.143768   14.665566   91.780167
H   46.853195   27.433487   65.777283
H   76.508247   65.328423   83.761421
H   37.273243   31.836422   28.588812
H   56.245449   96.545502   75.569748
H   68.330498   23.090702   39.966682
H   28.259756   32.469326   75.761002
H   43.532040   58.735275   54.615177
H   10.624883   53.253922   66.644943
H   11.223364   22.663940   96.306770
H   74.068222    5.358544   36.802143
H   31.763672   68.411819    1.365035
H   93.707626   12.413548   88.780014
H    3.416355   86.286247   66.734673
H   17.645552   66.215096   10.644306
H   99.189964   43.543533    2.807975
H   51.564796   36.473557   60.388763
H   66.828842   73.314804    5.586068
H   94.900543   26.893570   90.241409
H   81.898033   99.447319   25.805878
H   50.799385   42.409172   24.072767
H   36.806793   51.819653    6.084290
H   94.403725   36.655598   52.867306
H   78.502251   52.268032   72.517868
H   72.560051   24.000000   71.604652
H   62.536026   41.666862   53.146305
H   32.675919   53.828194    1.493143
H   18.444490   87.715767   60.792149
H   64.648582   47.775291   64.896156
H   99.623444   12.717861   58.852154
H   27.703743   42.229130   96.492683
H   67.618454   28.804483    9.963935
H   28.329351   14.814409   88.326218
H   77.215118   16.750057   93.031555
H   37.289276   43.331486   20.680496
H   66.970741   53.169147   18.948444
H   93.983719    2.799526   11.186075
H   13.093367   30.450125   86.742569
H   49.802540   44.965530   77.331604
H   24.945885    9.143449   40.662476
H   57.944183   21.831150   53.108894
H   46.828590   41.816879   36.798103
H   48.697086   13.200469   49.631702
H   74.701729   95.136894   28.931469
H   57.774246   96.247124   94.563591
H   58.028267   87.880836   27.276478
H   56.344307    4.637655   28.251371
H   28.647005   79.532608   35.848095
H   86.647484    4.005334   35.677917
H   92.534660   31.017355   27.656912
H   58.150482   20.086481   34.437923
H   54.638081   39.608067   18.683876
H    3.254920   91.269341   61.612328
H   53.632805   74.165260   30.690178
H    7.280248   17.199799   54.227196
H    3.329050   37.337391   35.586239
H   46.259197   75.800423   86.802353
