100
TIME:    6.528, STEP:  6528
H   75.860428   23.371569   93.169449
H   20.188042   58.608135   89.716713
H   91.977356   43.554054   46.714725
H   82.572311   63.696808   82.341309
H   36.700348   96.005417   88.704987
H   26.787609   94.135826   25.235630
H   10.838334    2.138488    0.951187
H    6.798370   53.356106    8.813943
H   93.157173   58.652817   89.172432
H   96.456520   10.116621   63.315342
H   93.036377   28.910604   10.939854
H    6.683754   50.905460   28.258465
H   27.501572   66.829460   76.366631
H   31.852802   84.954750   54.024670
H   59.895088   86.919701   36.970882
H   39.047729   40.766335   91.159668
H   99.164070   13.748008   67.657936
H   40.665485   77.186646   73.230019
H   46.940670   52.212410    7.283528
H   16.642677   67.180214   60.789207
H   76.895950    6.333669   80.060936
H   88.226059   52.750000   63.358780
H   98.583992   41.530418   45.577286
H   12.512280   14.922091   22.247080
H   96.106270   68.457809   84.750648
H   16.788015   33.675522   76.552864
H   99.161781   71.117386   29.493010
H   81.727829   61.144676   82.554306
H   53.116081   41.362957   48.589630
H   51.305286   29.272026    2.346298
H   72.974739    7.434426   92.904427
H   77.939209   72.147858   94.934425
H   30.180279   90.863182   85.890747
H   53.925575   75.470505   96.737823
H   18.492432   65.408852   22.219507
H   40.105221   96.729347   98.902351
H    5.919517   65.465942   22.846045
H   94.179024   39.488201   83.104256
H   69.525024   39.181511   11.700758
H   48.328449    1.053286   51.644535
H   89.109451   80.173958   96.142555
H   50.069733   67.202698   13.226361
H   67.467255    2.647399   72.997643
H   62.507336   22.214987   19.009222
H   90.400108   74.329208   14.728789
H   93.860741   87.428452    9.681936
H   92.734665   79.852554   88.127159
H   56.588047   62.606262   72.493576
H   55.847595   91.801430   84.069839
H   62.796093   30.093290   27.093798
H   43.053349   39.407562   22.241814
H   22.384724   57.990517   45.513710
H   44.283314   59.860291   23.732214
H   25.518990    0.689631   19.878750
H   21.025986   30.687366   55.873539
H    1.726375    5.666901   70.398270
H   10.099570    1.183538   76.854530
H   39.966949   60.398537   45.409775
H    5.127156   14.594161   10.328617
H   28.238312   29.551907   77.938744
H   71.491814   74.988419    5.422459
H   67.226448   67.180374   99.981201
H   17.245951   61.824135   85.825897
H   91.305649   77.323883   49.906406
H   91.430023   39.463703    3.492870
H    0.322245   17.746696   32.170151
H   63.814865   74.050629   82.233658
H   29.432289   90.880104   78.278748
H   82.256996   80.725891   50.808819
H   62.637924   76.482353   87.987030
H   14.738655   51.236221   83.841560
H   35.703808   34.873505   34.571190
H   81.353134   95.405853   94.368713
H   86.502495   36.262341   15.282042
H   76.911247   37.948177   96.264297
H   79.984535   25.955936   56.676857
H   59.664639   60.786724    6.516646
H   38.677639   23.869959   74.957558
H   74.553368   34.343929   90.513756
H   79.385971   53.408791   58.528130
H   38.615532   96.816818   70.152374
H   31.153177   86.805862   40.871929
H   30.785690   16.289221   51.637756
H   99.266075   70.774193   67.184258
H   34.470329   40.555405   14.935873
H    1.045886   48.839439   95.107208
H    3.145096   28.714012   34.823677
H   61.017204   82.697021   27.892624
H   91.156845   30.703115   74.800179
H   89.175735   40.697018   57.575378
H   91.175285   25.925461   71.321213
H   61.304790   86.447586   57.907616
H    3.910947   23.391399   23.824839
H   78.172615    9.219171   66.972015
H   43.727577   64.992172   66.092682
H   33.107651   37.947418   30.269424
H   44.440147   42.308105   61.758118
H   25.676775    9.465013   47.831123
H   97.734367   64.991692   98.247917
H   44.689678   11.116268   68.878319
