100
TIME:    5.585, STEP:  5585
H   39.631264    9.849038   94.032791
H   46.230568    7.505758   30.257229
H   75.760910   75.711411   57.787090
H   82.414032    2.547436   34.029770
H   45.146713   20.419802   14.273247
H   41.414066   95.157448   31.847315
H   60.258839   38.463902   27.207354
H   80.916306   71.774673   95.397224
H   16.337975   49.318451   48.531639
H   22.216829   96.575691   26.392096
H   80.751938   90.967316    1.774406
H   42.677933    3.637941   95.383125
H   87.676529   23.854733   70.068047
H   78.545219   87.861336   82.261147
H   48.433311   71.152817   82.306946
H   76.962845   23.244644   69.437225
H   74.994606   51.374187   81.812927
H   20.499250   23.071461    5.921278
H   32.256657   12.649753   57.600063
H   42.046524   87.209755   96.585426
H   32.854897    0.212177    5.658222
H   97.819733   51.498154   43.663925
H   11.175542   49.199776   72.556732
H    0.130568    3.641085   92.282318
H   29.831806   43.241806   77.786354
H   21.086740   61.554283   65.228531
H   80.478500   10.314402   10.780567
H   61.294750   17.128609   51.384735
H   32.611702   55.806767   93.166870
H   15.147270   52.611046   27.379723
H   35.859955   22.873569   67.511513
H   18.397373   98.206406   82.232643
H   63.758389   59.857048    0.937860
H   14.080798   61.890800   36.463203
H   41.943970   36.737015   64.814224
H   58.132008   22.869968    1.867447
H   15.473519   99.999634   48.541424
H   33.154034   56.747852   16.560085
H    9.326509   59.729057    3.084636
H   37.148975   89.334206   77.451195
H   53.556274   47.816612   73.925880
H   29.672409   62.517311   65.182808
H   59.347713   96.991531    4.884998
H   22.722950    6.386953   26.807955
H   72.197563   11.537549   34.034405
H    6.031749   69.442154    5.850855
H   85.367477   28.569782   79.076454
H   56.537685   52.893661   14.146033
H   28.285393   69.899292   21.685581
H   43.012028   15.738623   93.042526
H   43.118519   30.448149   12.301917
H   76.553246   45.493397    7.416131
H   24.721416   54.392456   78.501640
H   47.354355   16.076920   78.267357
H   96.108513   48.048046   47.851650
H    0.551827    6.658845    2.500229
H   50.315681   28.394142   87.167351
H   10.185187   49.453514   69.698471
H   30.753813   74.748940   82.720009
H   90.466766   57.070782    4.759895
H   12.006437   18.844002   78.944969
H    0.695284   75.957687   42.651352
H   53.226856   26.172937   50.490234
H   26.551121   72.186996   75.508469
H   54.002213   14.779079   15.675757
H   58.250572   64.626183   76.412117
H   39.473877   41.450047   36.706741
H   94.571465   36.949986   33.197895
H   35.257999   48.483849    9.950303
H   43.536476   29.051006   89.972717
H   44.684242   15.397367   95.151344
H   13.458681   66.169662   65.530624
H   42.839279   42.048622   18.547745
H    7.263447   95.944725   71.311882
H   31.446997   36.602802   24.779194
H   57.693878   65.520317   20.130175
H   74.037376   42.475590   89.821739
H   94.373779   85.531197   22.877947
H   29.334133   37.113819   79.995369
H   25.630013    4.777493   39.768433
H   20.161592   87.061050   13.791608
H   60.380371   80.690384   19.755590
H   71.139534    0.520277   61.831768
H   34.389183   90.079391   53.312847
H   80.385750   99.538933    6.349304
H   22.751461   14.199679   29.622696
H   40.164253   97.277779   89.857803
H   45.851158   58.157154   37.669975
H   71.587753   83.208626   82.512703
H   72.550293   79.494186   23.868189
H   52.583885   75.004593   51.406780
H   91.532341   15.524842   39.942902
H   43.462662   95.096657   50.901203
H   87.036476   52.008617    3.387150
H   60.030357   49.459965   44.422794
H   55.219696   75.186249   78.976318
H   19.291376   88.192528   15.990935
H   27.365400   63.790619   66.659904
H   42.656464   60.925037   77.235161
H   86.116928   35.314541   59.720791
