100
TIME:    9.488, STEP:  9488
H   75.687408   51.926704   90.459488
H   38.440140   19.004246   76.354485
H   42.860874   56.508476   11.965332
H   83.069138   41.745598   20.092566
H   10.178606   33.262024    8.447760
H   80.887695   90.929039   18.373955
H   55.702740    2.012193   32.427135
H   74.148209    9.435085   37.037254
H   20.394722   74.059402    2.850991
H   15.607061   52.618626   79.214302
H   17.704376   48.011261   25.815058
H   93.709450   99.275215   17.562824
H   38.731461   87.692619   82.216049
H   85.292801   75.831215   79.281380
H   95.847237   22.517891   94.623314
H   20.031242   81.873703   45.454163
H   61.138496    9.529018   37.118423
H    3.962232   33.152702   70.624100
H   93.046814   76.387390   63.224537
H   36.891880    4.325590   62.319756
H    1.244886   11.657114   99.722992
H   72.004150   56.679443   11.287399
H   59.063728   17.463755   60.887802
H   37.485767   50.332245    2.412288
H   90.239731   33.714783    6.607780
H    2.868553   46.397263   98.018532
H   43.918320   48.072834   88.222092
H   31.972075   99.307480   80.395897
H   17.478786    9.917797    8.669632
H   64.805046   56.011520   37.656960
H   89.467934   72.862442   58.718735
H   64.835434   90.369049   20.912361
H   38.679550   74.295288   52.550926
H   78.992447    4.204155   72.037209
H   44.825722   41.295235    2.309495
H   97.413467   28.573862   89.598152
H   89.821686   57.064217   56.082600
H   71.833855   85.319252   91.983467
H   44.581318   74.690025   24.854515
H   69.529099   23.947975   84.531021
H   86.814224   81.738281   65.877647
H    0.616781   78.810364   64.338371
H   92.940887   20.404797   86.800896
H   73.509193   71.905067    8.420451
H   33.642441   57.557400   68.027908
H   55.655228   43.879894   21.707388
H   15.870542   40.829876   16.546301
H   56.766720   93.093323   55.640842
H   42.372742   46.653553   65.995972
H   24.936476   75.152458   20.131596
H   44.112293   53.734131   51.509048
H   66.245865   83.323318   51.208015
H    5.672674   77.023376   51.825180
H   56.967712   52.401482   50.495064
H   85.345924   90.087677   81.038300
H    5.413052    2.553268   69.632874
H   97.750809   15.774529   58.375221
H   19.559904   80.862404   69.165916
H   38.577740   39.672165   83.091850
H   32.908634   57.068401   93.749306
H   58.214207   37.335308   74.641624
H   62.170250   39.629105   66.055229
H   18.200577   59.839012   82.849823
H   94.563599   93.448151   69.542892
H    8.917136    3.051516   79.144600
H   18.486687   70.597038    7.189178
H   26.328785   76.385559   25.143208
H   24.964859   60.166389   19.783875
H   29.782572   68.039169   65.163452
H   22.721329   25.202356   81.719727
H   20.738052   49.834904   48.341072
H   91.953621   36.561913   51.511646
H   88.356720   48.994129   18.476131
H   21.342724   48.923977   39.408363
H   19.517202   42.285816   20.687994
H   49.961769   15.664161   57.506248
H   28.495892    4.589038   59.016739
H   77.735527   30.331291   38.437149
H   16.498388   25.649471   23.543512
H   34.224388   92.162483    3.521615
H   96.558968   27.440073   47.068260
H   53.267075    6.007595   93.237923
H   18.010099   65.791176   33.532322
H    2.908822   24.068081   96.835777
H   90.344864   55.387634   27.998510
H   32.924923   57.565826    0.658584
H    0.836912   13.497211   75.967598
H    8.621546   45.837563   97.204315
H   52.588139   65.895592   50.591194
H   27.471941   18.913528   63.387215
H   12.311220   85.754532   33.831322
H   80.314819    9.067957   14.312104
H   93.652710   12.201162   52.726189
H   62.980202   88.702377   68.497780
H   92.547836   99.851540   34.108711
H   77.591476   21.061300   77.381287
H    9.489779   12.175490   91.524216
H   19.963274   55.925442   88.404747
H   56.726555   77.773674   50.318783
H   28.547752   35.157551   83.730896
