100
TIME:    9.576, STEP:  9576
H   69.736237   43.856636   90.378922
H   36.009720   23.773106   81.902824
H   44.373508   62.839653   10.932236
H   83.083908   38.120110   15.268962
H    9.390062   40.315613    6.061819
H   79.523438   90.833702   27.088890
H   51.090984    7.954623   39.308849
H   67.231583   17.048084   28.957115
H   18.231514   65.598587   97.311852
H   13.203161   53.882175   82.659859
H    9.518829   51.552155   17.338465
H   90.351173    3.686061   11.299122
H   33.120010   82.365837   73.470566
H   80.935501   75.559975   85.977791
H   96.916084   14.657295   90.390892
H   16.492699   74.176926   38.149475
H   54.062080   15.349438   45.129410
H    5.844130   28.870598   67.573318
H   94.417786   80.078674   67.861313
H   34.521214    2.456785   68.311211
H   96.022812    2.896357   97.334198
H   80.440796   56.796265    3.793427
H   57.888802   16.748392   58.370102
H   29.309059   51.384979   95.876846
H   87.092270   26.735718    7.257347
H    2.453426   43.803024   89.737648
H   36.329636   44.414448   89.967697
H   24.546873    3.415014   83.304344
H   19.392239   17.901720    4.509985
H   68.179436   53.833542   44.652809
H   92.930946   80.753922   51.756454
H   70.391830   87.937286   12.765755
H   44.878464   67.856689   60.478661
H   82.710587   96.139519   68.329811
H   42.635658   34.632393    7.663707
H    5.063028   35.466824   89.321541
H   98.262360   53.841560   63.016682
H   68.196281   83.709267   98.193794
H   40.866535   72.772545   16.326897
H   61.240383   15.709395   91.454361
H   80.799942   84.758179   67.950890
H   93.200493   79.155472   68.830803
H   93.698212   20.932842   93.157585
H   67.891029   73.382118   17.024273
H   26.009180   54.085659   75.558182
H   54.519913   45.558361   22.064901
H   16.558681   45.616192   17.391241
H   56.772091   93.999695   61.085789
H   44.944824   39.365650   62.485672
H   26.783461   76.492546   13.978617
H   44.602406   45.275330   51.674210
H   70.522598   75.157913   45.431404
H    7.498007   77.533630   46.713913
H   54.930054   50.965385   54.378365
H   78.339333   97.799225   81.786224
H    5.522655    2.460701   66.637146
H    3.329710   13.235176   66.744728
H   13.007428   72.551979   66.899315
H   45.518536   43.390976   76.336357
H   27.101810   63.832623   91.246376
H   63.765903   33.243206   67.781395
H   59.046959   38.810013   62.073578
H   24.174911   53.834129   76.815399
H    0.606117   93.927521   67.154099
H   12.410026   96.023170   87.339546
H   13.080925   66.222282   12.392592
H   19.268147   79.428284   29.392078
H   18.886124   65.199104   23.990784
H   34.168739   61.716049   59.644123
H   24.508560   29.622095   81.533081
H   17.943405   43.846806   47.285652
H   84.706673   33.640038   57.961658
H   82.619049   44.641529   16.219601
H   19.405773   43.354824   34.179604
H   23.756002   42.415394   27.360235
H   52.042397   21.304146   51.585289
H   36.488228   96.972458   60.577713
H   81.869926   24.577507   43.297318
H   20.718054   25.390987   24.525751
H   29.908878   87.368782   95.940376
H   98.281746   28.350473   52.327904
H   59.870163    6.578861   85.875496
H   23.576231   67.262856   41.913242
H    8.963052   31.598690   88.797935
H   86.060074   49.882935   19.468206
H   30.899349   60.798553    6.769694
H    6.714293    7.098739   80.163765
H   10.036661   38.796059   96.292572
H   54.414310   60.995811   49.871468
H   19.691576   15.292740   66.533203
H   15.912706   90.506607   35.689720
H   86.825928   15.686319   15.988557
H   99.293701   14.841726   59.531364
H   70.988503   94.003647   75.194191
H   91.026474   91.969460   36.130928
H   84.859909   17.586538   72.835999
H    2.504840   17.225452   86.463303
H   19.793413   60.279385   86.637657
H   52.534416   78.153679   42.947628
H   34.013512   32.899677   75.253967
