100
TIME:    3.406, STEP:  3406
H   86.988678    9.673769   96.027725
H    6.525653   89.412582   92.849503
H   38.300804   18.945202   83.359535
H   82.048294   92.322197   53.469662
H   64.663818   45.763424   73.354172
H   75.206062   97.518120   16.053343
H   74.460838   91.326622   56.806572
H   52.181412   83.264114   95.465843
H   69.901955   58.820389   85.691536
H   81.764244   65.288475   41.065964
H   83.437210    3.290466   11.666670
H   25.842834   94.416031   50.485985
H   26.607090   55.639679   86.600243
H   86.436028   94.577614   16.437725
H   21.930779   65.789658   87.049110
H   64.576599   13.827986   50.313820
H   50.216927    7.251979   83.449966
H   73.926231   29.067024   81.463562
H   98.317955   21.238626   42.802906
H    0.757644   33.485928   48.228935
H   62.159851   17.138954   64.795319
H   88.916885   48.605499   29.225891
H   40.269020   66.921440   34.901627
H    2.587194   77.531311   54.115200
H    7.766543   16.046059   61.693886
H   31.040770   26.122549   69.925880
H   68.376572    0.892642   67.553505
H   45.153217   15.420258   79.356682
H   85.230698   58.110855   96.169533
H   31.593624    6.541247   54.155640
H   50.103756   27.478418   39.907066
H   80.814186   58.404861   83.953590
H   10.271061   19.283051    4.636334
H   22.013046   61.583168   28.261005
H   96.106430    1.452514   32.129860
H   68.694542   52.044888    8.930028
H    6.479089   79.800278   76.844841
H   23.216049   96.616310   62.792103
H    1.302744    7.207224   14.245619
H   42.386196   93.324692    6.010832
H    2.476315   73.050278   22.589582
H   25.509300   64.723450   62.817917
H   40.578709   83.924713   47.492153
H   61.862854   69.855499   13.754920
H   61.209362   97.509277   47.571712
H   34.145550   27.881031   96.998207
H   68.344040   10.067273   58.158257
H   56.421314   30.451227   79.321922
H   64.587631   50.363922    8.606505
H   97.312401   82.581581   45.443707
H   43.284763   40.816498   89.329147
H   70.658005   47.688202   50.465244
H   79.528267   41.757874    5.053650
H   97.820702   51.636620   82.114288
H   69.602432   57.077690   29.316591
H   97.827896    8.951803   76.678528
H   12.178193   91.267815   79.926338
H   72.438469   55.233063   25.825333
H   58.899704   82.680222   50.003269
H   34.257820   89.584137   66.735847
H   74.553658   20.178009   48.836582
H   78.029015   96.239517   41.244362
H    5.293191   74.863701   99.910820
H   76.924065   60.322296   34.668003
H   67.514336   88.812386   12.754968
H   92.109322   72.950508   47.573105
H   14.298664   66.114319   31.504763
H   45.090126   12.329761   29.029097
H   26.656471    5.052879   46.614895
H   99.392395   19.454153   94.561066
H   13.876040   63.655586   21.291229
H   93.127121   38.486725    5.992674
H   84.913620   49.830486   74.419426
H   55.234982   33.840706    0.781765
H   26.388941   33.494030   59.595982
H    6.175426   25.864927   66.747711
H   76.198219   31.336891   51.286259
H   92.000397   28.010157    2.539357
H   24.843214   43.514233   55.684738
H   32.488777   23.455246   27.491165
H   77.529831   64.518295   83.557693
H   96.879776   66.471329    1.969443
H   33.296474   64.109436   54.304539
H   84.477249    3.617486   52.330688
H   86.485001   35.837444   17.578789
H   72.904480   34.161903   78.306122
H   94.633751   55.708977   85.954468
H   10.782480   32.601624   60.321373
H   26.368214    4.532000    0.334227
H   65.203369   69.145096   45.973053
H   63.410156   57.344563    5.390298
H   30.302553   51.655540   98.425316
H    3.785809   29.713896   82.395653
H   76.431038   19.831318   56.466698
H   97.701363   44.641354   94.353935
H   75.243210   61.231941   91.524437
H   92.250397   63.143948   41.307640
H   19.369040   45.237732    1.537469
H   46.459373   51.532223   59.749634
H   50.769764   91.230659   69.629684
