100
TIME:    1.075, STEP:  1075
H   44.624184   23.438240   98.161819
H   71.367149   63.031612   45.810879
H   98.234436   51.243618   10.717606
H   81.657043   88.359398   81.239372
H   85.542374   58.923515   36.556862
H   11.346584    0.043666   85.206566
H   96.630302   33.926891   74.519173
H   35.393417   81.602921    9.490499
H   27.202446   82.936462   32.419289
H   45.462486   31.818813   49.787262
H    0.261154    9.497443   36.200180
H   14.809544   77.574974   16.409384
H   74.880783   96.668221   18.282911
H    1.854278    1.762814   39.048412
H   93.576500   74.001160   99.097183
H   58.300949   17.709042   43.806137
H   37.638130   53.088455   71.231529
H   24.116463   42.423508   62.278122
H   62.003761   23.450480   19.998240
H   63.553368   82.985947   89.523674
H    0.484610   49.198296   28.067249
H   65.425835   45.518814   27.720936
H   71.391228   85.879311    1.592182
H   19.162415   49.574680   27.235542
H   91.136345    0.918893   44.494041
H   41.729824   95.578369   88.413208
H   69.381210   97.789810   21.298384
H   41.835464    6.616706    2.306059
H   34.545959   46.624180    6.357080
H   42.213039   64.233658   68.848045
H   58.389194   18.444475   24.345486
H   33.633213   22.811920   99.745964
H   46.079678   89.830513   94.641441
H   23.523323   75.205421   26.462759
H   54.051018   77.658333   90.189041
H   66.021973   68.931290   16.945410
H   82.905266   65.167336   93.171211
H   19.559990   39.278614   98.302055
H    2.391408   57.559914   39.093475
H   61.939522   11.545012   22.612482
H   61.775703   93.068199   67.671066
H   35.006310   60.106232   53.305393
H   20.500441   69.946396   79.121101
H   10.713614   30.786730   85.841682
H   63.406128   89.477097   48.099731
H   64.218620   83.420753   87.537056
H   47.431080   83.731079   36.809029
H   56.296825    6.451559   35.092815
H   96.455376   43.417290    1.590802
H   48.435978   47.111584    8.478729
H   43.462605   65.859230   64.751495
H   57.375679   63.988049    3.489106
H   31.178965   28.241943   40.435570
H   51.796223   89.664848   79.253677
H   55.180031   52.745693    9.528221
H   94.911301   11.402172   56.031265
H   64.400497   58.528343   58.228905
H   46.011658   75.367104   85.865433
H   75.059319   84.189560   28.954678
H   88.079971   10.415258   33.034019
H   27.512831   28.579163   30.580299
H   60.757294   17.939407   46.715393
H   47.149933   33.847069   59.808937
H   16.857172   47.642220   97.952141
H   74.991982   74.986290   95.673637
H   35.306252   88.831703    9.747942
H    1.318862   85.527954   18.963459
H    6.108148   79.017258   17.593817
H   10.479040   72.543686   92.809792
H   52.162231    2.211785   99.469482
H   87.895592   22.258173   49.254490
H   85.328323   15.848555   35.327873
H   36.900269   65.130653   34.184170
H    6.530171   81.351974   39.318153
H   14.002440   30.173296   82.889946
H   51.074390   76.470848   23.596130
H   64.559013   33.372917   10.055811
H   82.485779   80.429710   73.809235
H   13.079264   50.353367   29.675091
H   46.805557   50.408211   28.308868
H   31.918842   40.403027   44.238476
H   21.980892   51.248123   96.886185
H   85.815224   25.199339   32.288212
H   24.119917    4.150734   65.240669
H   99.985245   81.642441   43.543205
H   26.549854   48.542133   16.434715
H   38.951546   25.191673   74.803207
H   73.260544   19.227257   84.567223
H   77.991646   34.317329   19.404888
H   71.293076   65.049316   62.643764
H   68.015968   31.479078   56.163769
H   57.826069   76.356483   54.004593
H   54.257790   59.839607    2.079481
H   51.131226   78.440102   99.300880
H   38.006824   53.438400   40.788170
H   82.712158   53.280205   11.923914
H   77.274033   29.372313   75.364761
H   10.812184   25.390656   38.836311
H   57.501488   41.484196   55.002750
H    6.002579   51.091908   94.147774
