200
TIME:    0.005, STEP:     5
H    2.250084   63.254910   11.321222
H   25.869720   29.447104   80.357117
H   23.063257   58.852242   33.773186
H    9.921164   74.227028   50.644886
H   17.705351   77.773209   57.037235
H   97.263550   59.193264   72.505913
H   99.954552   55.470871   45.102757
H   97.622604   78.738525   33.413834
H   77.884827   91.029289   53.452240
H   19.133678   78.190666    5.341458
H    4.002553   89.574043   85.535446
H   29.806046   35.750355    1.544948
H    5.406390   79.208733   70.923180
H   15.511642   52.215458   30.941799
H   30.967838   70.135544   43.556805
H   36.150192   35.648964   59.392452
H   73.152344   96.712212   26.841665
H   42.142605   71.869926   47.704117
H   57.206554   38.209385   39.024418
H   89.308609   82.931908   46.580486
H   55.264832   65.027260   36.606884
H   95.260735   39.831902   79.630669
H    2.042521   64.250099   54.774902
H    3.671017   85.983253   92.336807
H   93.032227    3.252436   53.795780
H   18.855623   51.907829   14.718046
H   94.345360   54.081409   39.633240
H   89.117218   60.434849    0.112928
H    1.170921   63.672676   39.714420
H    3.669033   14.468998    6.754670
H   13.668303   41.631290   15.907499
H   36.199448   57.998520   87.817413
H   32.801437    3.928866   70.308708
H    4.204670   63.321533   34.182747
H   59.265827   99.511398   36.006618
H   40.737591   55.280056   76.781738
H   79.519547   79.501137   84.190712
H   44.539223   38.676460   25.733496
H   61.767647   54.815628   39.207996
H   92.336433   40.654865   72.876068
H   80.436691   16.206781   93.724220
H    1.642432   48.034695   46.799274
H   80.933121   93.180374   41.602200
H   37.804794   51.821201   10.343633
H   20.747917   69.125313   35.883461
H   44.366810   19.954473   40.132088
H   75.545670   37.725338   91.026192
H   95.836990   65.554192   56.095840
H   77.992119   37.670086   60.996902
H   70.526337   16.740999   15.654746
H   83.798523   73.470551   37.181992
H   30.121481   31.653179   58.488331
H   45.839733    1.147328    4.853724
H   25.904108   77.224518   78.223129
H   87.145950   81.611259   98.373489
H    8.318188   78.139359   70.953064
H    6.101143   15.856215   52.175419
H   64.841232   53.116405    9.544940
H   33.139793   69.937820    1.442747
H   48.538490   97.308754   71.338448
H   51.180607   19.961319   49.102444
H   85.714394   15.868237   47.265205
H   64.973122   20.338276   92.813156
H   18.432211   64.817062   98.420906
H   67.570717   72.575729    8.319886
H   47.957935    7.431394   28.639206
H   94.953224   28.118929   80.979927
H   98.657417   90.915642   82.618958
H    8.163713    2.677560   64.954239
H   46.589714   37.534088   50.995144
H   58.568256   72.527611   66.995407
H   38.744667   29.998848   46.409821
H   70.035294   21.600368    7.364410
H    0.209397   14.130059   53.731789
H   76.283554   97.067131   78.662407
H   47.373856   27.373283   64.412857
H   96.420853   21.201704   75.469627
H   35.259193    1.690688   56.003349
H    9.743927   19.223293   40.143269
H   71.817085   91.977562    5.406468
H   33.394154   34.073555    4.621836
H   16.303484   72.816132   95.122093
H   11.916561   11.088548   97.155518
H   32.337383   54.175194   86.192230
H   47.276615   96.838882   64.441895
H   18.046453   93.996597   32.674770
H   25.322783    2.294421    1.232583
H   77.285759   27.290596    2.578561
H   58.499477   71.466179   76.311111
H   24.621174   75.513824   57.450878
H   51.093384   32.864120   81.799751
H   85.692352   86.473618   93.240128
H   36.096153   19.512465    2.422653
H   70.566238    2.876451   62.652184
H   19.170206   60.105026   58.152298
H   79.003975   22.455181   40.110596
H   76.117805   22.407320   88.208260
H   13.354988   24.787004   46.368572
H   42.342842   72.132118   52.048443
H   63.118397   94.108490   27.193033
H   99.381470   73.928894   57.873470
H   81.833672   73.101234   67.160873
H   18.308065   45.757980   27.218683
H   10.583721   67.505600   80.830284
H   25.650309   30.561026   17.468521
H   78.119705   38.278664   54.892948
H   54.526142   27.178823   57.352905
H   66.135323   25.251568   27.828510
H   66.824387   43.056019   87.769142
H   96.818100   31.336927    4.387114
H   44.102673   98.108902    0.630511
H   76.557884   57.434978   87.834351
H   61.175594   77.547646   99.046951
H   64.020226   24.463655   81.014008
H   71.692436   72.182877   35.012577
H   23.628803   12.672216   68.332924
H   42.236919    5.133578   81.440536
H   41.963398   15.429536   38.675926
H    9.937696   48.890713   95.154114
H   64.580963   41.984615   40.576336
H   38.101875   20.197811   95.220367
H   28.428886   33.047009   41.275608
H   26.570704   31.733759   17.057877
H    7.539640   75.775970   28.156046
H   83.945229   14.765122    0.585425
H   39.112804   55.922165   30.068787
H    1.227758   48.092667   80.130463
H   80.568939   85.726860   33.017826
H   89.575760   60.990120   90.245682
H   56.354851   25.263189   62.498047
H   39.122681   93.576508   94.430687
H   90.720123   83.720596    3.785193
H   93.205116   71.161362   95.627068
H   12.443825    6.977665   46.814236
H   92.816963    5.619230   67.215569
H   68.617119    1.928451   87.143707
H   68.503654   85.965691   43.639938
H   89.213875   71.557503   86.911484
H   40.170731   41.047234   71.605667
H   43.320648   20.360907    1.987518
H   38.983479   69.980202    7.318996
H   68.056702   33.870571   40.768661
H   62.559917   52.435600    7.310506
H   68.481285   35.034435   74.230232
H   29.255833   77.560844   41.384144
H   37.329693   57.926449   41.101147
H   39.173241   97.806923   48.964539
H   49.069260   82.166290   70.173241
H   58.902927   74.603073    0.280674
H    1.930563   86.044151   98.777344
H   84.503456   57.318935   53.118279
H   23.895367   13.612114   55.516697
H   65.258736   40.625629   11.714603
H    3.697693   95.748039   81.759750
H    4.293855   47.672890   56.501331
H   56.525894   42.946209   46.831059
H   56.851391   53.836563   77.973190
H   42.704983   40.430382    4.218484
H   23.137381    2.619804   11.319637
H   66.313568   66.532288   69.222748
H   51.647579   93.956619   89.664169
H   54.637661   24.274134   37.579823
H   55.103771   44.815517   37.329765
H    2.648767   13.275981   81.253418
H   61.204285   14.114404    7.515504
H    7.864858   71.915672   63.586441
H   78.946426    1.367679   49.730453
H   23.426926   20.240559   38.295155
H   90.879791   28.934437   37.411839
H   15.748677   12.233124   93.049683
H   83.854431    2.839124   35.995796
H   54.281227   74.174988   56.736469
H   33.132404   87.551895   97.036270
H   74.114494   80.177597   68.800705
H   82.360260   96.804352   10.280353
H   93.651527   46.391472   23.061287
H   37.831894   45.580090   77.077454
H   99.647148    8.976746   61.875286
H   81.611397   26.842554   71.883369
H   97.479309   51.934273   83.069916
H   85.708244   76.768127   47.183186
H   14.487739   29.819180   61.037106
H   76.453552   90.409592    1.418922
H   46.363960   24.785110   68.544884
H   82.483986   98.527061   79.365005
H   94.340691   34.240814   82.778053
H   23.169643    8.549966   94.058548
H    1.710963   57.270935   17.303823
H   13.423807   60.125450   63.857635
H   45.340176   59.551655   62.733967
H   36.593979   38.799290   80.979622
H   49.579395   78.542862   27.617647
H   98.880737   11.933290   52.423008
H   39.209324   54.151485   28.577034
H   92.959106   64.751854   22.584993
H   74.754410    9.806802   32.786095
H    7.899216   79.151558   95.534927
H   35.739368    2.076391   53.594196
H   15.047089   10.954346   88.527092
H   10.458865   42.954147    1.013855
