100
TIME:    7.889, STEP:  7889
H   83.821526   98.562431   91.923416
H   82.601974   32.357395   75.532730
H   15.375620   41.469788   30.734768
H   82.800751    7.623077    7.739058
H   24.506804    5.095422   51.801651
H    5.679008   92.661354   60.020973
H   39.507565   94.040085    7.383244
H   99.826447   71.099907   83.852089
H   59.701195   27.798141    3.502011
H   59.283211   29.659349   16.605473
H   66.439468   83.673737   79.840714
H   54.741798   19.125149   31.380886
H   40.694450   84.475098   41.119717
H   64.465065   80.759773   57.597507
H   76.425789   65.348465   71.518341
H   84.323227   21.728333   78.184845
H   89.720497    3.767771   91.555145
H   69.768677   10.960205   26.054611
H   68.135635    9.305135   78.984512
H   79.972488   38.281498   53.452400
H   96.132286   70.843079   43.121937
H   18.706453   54.556747   47.457047
H   80.412682   30.462217    6.636006
H   86.056229   31.203585   21.167755
H   47.427925   60.524109   94.801979
H   10.410076   93.535751   48.492813
H   81.802002   14.539958   56.500767
H   66.889854   24.671545   27.540186
H   82.709358   64.843765   84.255241
H    3.493072   95.586380   10.541679
H   26.536688   29.477859   85.226509
H   63.873562   34.546574   68.939827
H   26.047132   91.285973    8.500379
H   11.430509   50.742897   39.399551
H   84.620171   62.362022    5.024137
H   58.414890    3.328870   94.624306
H   36.456898   15.622927   30.087553
H   37.925461   14.578079   79.145805
H   12.073707    9.529867   79.809792
H   20.138168   73.642136   58.725624
H   96.094788   26.873625   28.205900
H   35.372078   72.539871   82.707268
H   79.179962   10.811617   71.303291
H   75.603638   45.058922   52.079449
H   72.342735   20.633587   31.193474
H   76.291679   13.385112   15.211206
H    3.369528   53.869026    1.190497
H   56.669125   76.624130   56.704159
H   95.635445   79.082832   29.778015
H   91.371338   50.809063   31.933125
H   42.959896    8.011259   36.588425
H   88.533630   31.697824   56.173157
H   72.513206   67.751831   44.690620
H   94.002777   78.489227   79.936478
H   12.660831   49.959610   67.448166
H    3.421499    4.235261   24.066620
H   96.381027   61.912682    6.296977
H   38.624191   31.869036   10.351933
H   12.462749   72.107430    5.847294
H   38.425880   34.163082   39.228661
H   57.344921   11.697050   99.308296
H   18.921913   54.512375   38.402100
H    9.644332   68.951813   92.498047
H   84.763542   84.737778   12.951367
H   45.451393   30.762659   30.237570
H   16.714420   50.087730   12.643497
H   54.619415   21.106133   47.943523
H   35.418678   68.717644   43.342422
H   50.089882   82.933113   65.449860
H   90.246239   44.887623   85.111160
H   71.521004   58.634781   67.518532
H   23.627720   89.653709   34.306911
H   92.613159   28.090422   59.478321
H   56.537998   50.124172   34.415375
H   42.491714   39.931332   99.451096
H   12.156135   13.183296   65.098427
H   83.272179   42.987961   30.653418
H    2.619625   34.880169   50.120571
H   39.818901   30.346241    5.697548
H   12.641528   79.268028   41.276741
H   65.255302   10.897683   51.497665
H   33.280968   95.631927   27.010799
H   16.871092   39.050083   81.251740
H   92.900108   87.237793   42.878590
H   68.201447   55.415379   83.002998
H   69.728622   98.829269   89.619202
H   94.043251   29.757912   99.721214
H   82.905846   73.789185   13.781303
H   19.403450   54.925148   63.668953
H   68.846039   84.701065    6.230742
H   46.873096   99.415672    0.063036
H   62.005009   88.807861   83.843422
H   91.153702   64.230064   29.073061
H    9.707647   91.789391   58.741924
H   20.195721   43.081482   97.368103
H   45.520660   84.204346   59.971825
H   36.410271   20.412766   83.484901
H   23.049723   76.806404   20.509672
H   32.899132   70.868813   84.250877
H   29.227503   76.187759   37.768017
