100
TIME:    6.712, STEP:  6712
H   63.417068    6.498309   93.000992
H   15.106956   68.578743    1.317873
H   95.141541   56.791969   44.554264
H   82.603195   56.116241   72.256348
H   35.052277   10.753736   83.715851
H   23.933666   93.936485   43.458210
H    1.195098   14.563330   15.340296
H   92.336327   69.274353   91.919960
H   88.634102   40.962021   77.591011
H   91.430885   12.758940   70.519691
H   75.921143   36.314289   93.215813
H   99.660599   60.128483   15.161633
H   15.760117   55.701824   58.083427
H   22.742786   84.387611   68.027260
H   62.129951   70.483910   28.122677
H   31.649624   24.673073   75.886230
H   84.367928   25.917690   84.408180
H   44.600361   68.233154   66.851112
H   49.805843   59.931953   16.976841
H   11.685829   63.272274   73.316795
H   65.977127   88.016327   75.066185
H    5.866318   52.994263   47.689468
H   96.127327   40.033958   40.313004
H   95.416161   17.123262    8.581514
H   89.525215   53.865646   86.109535
H   15.949240   28.235764   59.249908
H   83.295937   63.469337   33.144314
H   66.201706   69.733177   88.635605
H   57.116936   58.057049   39.891632
H   58.360828   24.718071   16.973339
H   80.215584   23.933914   78.346931
H   89.557129   67.063263   77.900612
H   43.141544   77.400658    2.466923
H   61.699867   58.607956   88.985992
H   13.913048   51.477455   33.414879
H   56.100216   11.141194   98.323982
H   23.567474   58.727661   37.344578
H   86.573189   36.120464   96.089485
H   61.758747   35.172234   93.869980
H   30.998390   83.828491   66.121811
H   76.534134   86.488289    0.477484
H   34.563263   67.924255   22.619946
H   69.050751    3.751231   86.288902
H   50.758862   25.303366   36.999535
H   74.438805   67.068710   30.474607
H   91.485497   90.937973   10.429464
H   94.172165   89.858902   89.893150
H   56.597874   64.501404   83.878464
H   61.225586   76.561684   76.730728
H   66.658936   32.894367   14.228545
H   43.040714   21.643358   24.181175
H   31.329090   40.915993   33.435341
H   48.100269   60.927185   13.045721
H   21.258430   97.688034   27.997677
H    6.375157   46.812859   57.438786
H    1.955547    5.473351   64.134476
H   21.763994   95.874275   94.354408
H   26.266073   43.022194   40.670517
H   19.638588   22.369793   96.203316
H   16.096771   43.695278   72.705345
H   83.098503   66.430801   91.075943
H   60.695930   65.467728   91.656616
H   29.737741   49.268471   73.208466
H    3.940197   78.326202   44.910252
H   98.732635   24.767578   20.628458
H   89.018799    8.599764   43.049667
H   49.052414   80.412689   91.116959
H   16.722206    1.403133   87.075012
H   91.426674   67.504822   39.268108
H   66.365929   85.736259   87.599579
H    8.895653   38.717056   81.634773
H   20.532316   28.766937   48.043541
H   69.356186   86.303558   89.651917
H   82.451103   24.617302    4.349823
H   85.783318   38.210690   10.212955
H   84.333534   37.748974   44.296669
H   76.375580   44.860516    9.779879
H   47.322292   11.838617   85.118324
H   83.377708   33.803463   92.566124
H   70.362289   43.385597   42.676323
H   42.216301   98.720383   81.149811
H   44.959679   87.999100   25.478870
H   42.424667   19.366369   69.161087
H   11.924954   86.519310   50.379002
H   25.510714   29.045578   97.099358
H   96.811691   55.598778    7.884864
H   15.434099   15.335698   43.597481
H   63.976433   67.973877   25.984848
H   94.975204   20.458822   73.295296
H   72.908401   33.126278   64.152252
H   98.705315   35.860641   75.206955
H   74.918930    0.286323   61.412926
H   15.705457   28.912579   38.053841
H   95.956062   20.382044   79.378876
H   40.546547   48.510139   70.320953
H   48.305283   30.681433   20.765640
H   29.835028   52.867554   51.176208
H   25.321611   18.569412   44.137703
H   88.968987   65.786247   82.836906
H   56.118084    6.394618   51.152813
