100
TIME:    7.359, STEP:  7359
H   19.663126   47.165169   92.408646
H   97.239731    3.636212   42.113941
H    6.265340    3.340349   36.957424
H   82.711792   29.460426   36.790768
H   29.255987   62.613644   66.172531
H   13.898593   93.235542    7.532215
H   67.283386   58.253757   65.936539
H   41.483406   25.249134   32.514893
H   72.729607   78.755493   36.863918
H   73.759224   22.049334   95.852364
H   15.738770   62.347904   30.893702
H   74.969635   92.559433   69.107445
H   74.490685   16.555264   93.789619
H   90.707893   82.393379   17.262806
H   69.988411   12.690666   97.009064
H    5.633342   68.083923   22.179724
H   32.340187   68.710312   43.307156
H   58.436581   36.749954   44.425247
H   59.880665   87.072021   51.061428
H   94.254410   49.534779   17.367502
H   27.583221   23.605453   57.504948
H   67.894836   53.853165   92.591476
H   87.488945   34.771950   21.800825
H   35.300537   24.863253   60.531441
H   66.384224    2.553658   90.887794
H   12.909008    9.158939   98.367577
H   27.503767   36.571884   45.983418
H   11.611047   99.932961   10.021035
H   71.185158   16.758169    9.308657
H   83.170258    8.704416   68.408012
H    5.677385   81.951157   27.158348
H   30.408901   49.188374   18.004539
H   88.714973   30.062426   60.753792
H   89.036644   99.314369   61.728195
H   97.810326    2.490485   72.780121
H   12.343132   61.817307   96.290260
H   85.622726   35.033813   88.325836
H   59.829529   24.278477   41.745102
H   34.446651   21.076307   31.170170
H   70.057121   23.258127   17.024920
H   32.315491    8.689649   15.719351
H   80.037453   70.461472   55.648884
H   74.618805    7.632353   33.021954
H    9.447454   36.163048    0.259992
H   18.317421   41.542934   85.839302
H   83.133415    3.277968   13.058001
H   99.226852   25.045906   96.102913
H   56.636776   71.165298   23.910732
H   80.140450   22.977879   50.921677
H   80.243408   42.742123   68.991982
H   42.996288   59.179657   31.000561
H   62.776028   80.878479   90.964111
H   61.521847   64.678711   75.470345
H    6.277008   87.134399   56.548416
H   54.860550    3.511986   62.942669
H    2.761385    4.792769   42.109070
H   62.779034   77.205498   55.889610
H   78.089523   81.920464   24.004660
H   70.663628   49.711506   46.535088
H   73.399879   93.424759   54.303123
H   23.912119   36.344154   40.630081
H   37.732643   59.445541   62.384567
H   73.663933    5.117736   28.841736
H   48.369595   81.850662   27.342251
H   24.413380   73.093964   80.880409
H   49.272369   76.435692   81.305359
H   97.141693    2.783239   22.354994
H   72.029243   38.406975   18.005356
H   23.673180   21.015518   98.688080
H   79.482231   18.268740   86.235275
H   88.350380   94.695419   73.875038
H   67.270760    7.251769   95.458443
H   27.170980   54.305248   73.066223
H   68.205177   83.668030   65.906769
H   16.961748   39.150921   59.266010
H   99.625938   79.216331    0.762736
H   35.137409   88.860176   21.254118
H   77.719528   69.534447   20.849100
H   14.404941   31.903019   99.782875
H   38.632278    8.139604   86.936836
H   54.879478    5.414590   19.820267
H   93.510384   92.194885   71.349541
H   83.348518   30.186560   30.777122
H   56.435947   41.885006   91.286552
H   94.007568   88.571678   34.379768
H   81.924057   79.363480   52.814545
H   58.645756   68.293221   74.448845
H   74.381981   16.199015   19.276527
H    8.402894   84.435188   68.003670
H   15.704032    6.505253   87.283371
H   25.183338   70.795219   88.870407
H   22.790377   48.946259   73.742561
H   57.179554   48.326725   88.087349
H   58.484482   59.634850   23.004831
H   29.360493   90.554886   85.188843
H    1.744800    5.133579   87.346855
H   78.479668   89.997787   13.965865
H   24.072748   50.581821   31.150351
H   58.147240   68.580147   28.643879
H   96.307808   89.790359   88.824326
