100
TIME:    0.501, STEP:   501
H   83.442055   76.077095   98.687332
H   87.333977   31.908131    9.603250
H   88.372314    9.948089   17.457306
H   81.560699   12.008577   12.701287
H   90.683640   12.914880   52.120796
H   20.247456    0.668373   28.361006
H   26.713516   95.166847   29.631624
H   80.508682   31.944798   62.194908
H   41.312462   38.124359   68.552116
H   61.149040   23.579212   27.308458
H   53.653229   86.401459   91.490669
H   36.719044   48.803154   57.267159
H   11.394242   31.396332   75.333092
H   30.275211    3.532569   95.365654
H   86.595940   25.272326   26.689329
H   81.379715   67.917061   91.452621
H   83.786903   15.128922   18.969839
H   11.850492   70.336990   82.177536
H   53.065666   99.369156   89.757767
H   79.087776   95.027740   50.367256
H   34.546494    6.340623   43.644875
H   10.387023   44.761200   76.596870
H   79.054955   90.547615   18.015682
H   72.493195   42.690464   69.867157
H   11.665327   46.441448   40.258194
H   44.361767   12.681563   42.214554
H   18.876600   21.650665    9.907896
H   90.268211   79.824173   83.334824
H   22.065033   94.546898   33.489014
H   20.203989   78.440018   23.216450
H   35.809666   66.969810   69.766930
H   97.390930   38.669266   52.883995
H    5.647001   31.826174   42.930992
H   99.270195   27.808929   50.644600
H   68.318687   21.048569   55.234787
H   16.115086   23.841902   18.920462
H   27.851761   86.187843   47.942089
H   43.282509   49.784489   57.794453
H   28.196747   69.813118   94.107880
H   16.005184   65.282219   77.452324
H    1.004864   73.370232   54.144680
H   86.594139   34.342972   26.337835
H   15.556340   66.504288   37.660934
H   47.366852   21.167658   29.717014
H   13.197796   12.124974   98.978943
H   71.552864   72.622368   85.282967
H   41.370167   52.768032   31.904242
H   56.266171    0.541599   99.577011
H   79.674004   90.956772   24.488489
H   36.397358   38.374935   48.623520
H   43.506397   21.275370   58.699345
H   29.479910   17.249554   41.172684
H   19.271723   24.913696   73.773689
H   65.086960   99.027733   53.923969
H    0.874276    2.424700    4.657375
H   94.193100   12.005417   75.571579
H   28.013077   75.090752    3.636648
H   88.753357   29.573677    0.649912
H   29.789711   59.937149   73.022247
H   25.958046   66.297440   49.359947
H   91.303818   55.270828   75.333191
H   81.129669   23.282120   72.687393
H    8.214941   72.989006   99.187355
H   77.442696   44.519798   13.537397
H   52.208740   20.829800   42.218452
H   70.568153   17.366901   75.808891
H   47.372734   65.681091   91.250046
H   45.758354   46.190231   90.153297
H   81.872307   13.787651   28.810459
H   40.535263   73.343407    0.677237
H    6.122694   61.316357   56.138706
H   32.657589   34.898399   93.302284
H   74.325531   93.525856   48.902905
H   19.163551   17.675093   73.432686
H   86.326950   29.356562   39.377491
H   37.503025   39.682068   62.217411
H   12.442161   83.121452   99.899231
H   55.518219   17.961212   42.109035
H   85.566750   52.035007   23.274784
H   74.955521   81.669365   77.759613
H   20.686008   34.464733    9.932468
H   78.913994   47.499466   44.886009
H   49.495289   15.619637   77.617676
H   84.634064   55.032810   17.669319
H   27.935442   17.545403   99.186241
H   39.762119   27.456409   76.574165
H    0.615368   66.926140   47.432751
H   64.020279   65.182732   90.531792
H   66.080025   66.277260   24.101658
H   22.041019   88.671112   42.122494
H   44.525547    0.484903   44.041943
H   15.355865   33.185616   43.069550
H   17.428974   42.642204   57.673607
H   95.650826   43.622322   60.597256
H   47.930256    4.852333   27.598534
H   35.302155   75.947319   41.571739
H   22.835272   96.431923    8.375898
H    8.704659   20.503387   48.019646
H   84.845665   39.009907    3.086091
H   70.355270   65.836372   49.432724
