100
TIME:    9.680, STEP:  9680
H   62.703033   34.319283   90.283707
H   33.137405   29.409031   88.459953
H   46.161167   70.321953    9.711304
H   83.101364   33.835442    9.568172
H    8.458147   48.651672    3.242071
H   77.911133   90.721031   37.388565
H   45.640728   14.977511   47.441784
H   59.057388   26.045094   19.407860
H   15.674995   55.599442   90.765831
H   10.362188   55.375462   86.731880
H   99.844940   55.736847    7.320666
H   86.382301    8.898872    3.896509
H   26.488297   76.070549   63.135063
H   75.785965   75.239418   93.891731
H   98.179268    5.367500   85.388939
H   12.310783   65.080734   29.516548
H   45.699043   22.227936   54.596939
H    8.068191   23.809929   63.967857
H   96.038025   84.441101   73.344101
H   31.719517    0.248213   75.392021
H   89.851303   92.543159   94.511078
H   90.411377   56.934326   94.936890
H   56.500252   15.902941   55.394638
H   19.645943   52.629120   88.153336
H   83.372543   18.487732    8.025017
H    1.962822   40.737106   79.951149
H   27.361397   40.090900   92.030685
H   15.771641    8.269383   86.741600
H   21.653591   27.337114   99.594009
H   72.167351   51.259567   52.920631
H   97.023598   90.080215   43.528305
H   76.958481   85.063385    3.137998
H   52.204453   60.247437   69.847801
H   87.104752   86.608513   63.948341
H   40.047401   26.758125   13.991334
H   14.103281   43.613247   88.994637
H    8.237298   50.032967   71.211502
H   63.897350   81.806557    5.532749
H   36.476337   70.506432    6.248802
H   51.445156    5.973083   99.636490
H   73.692154   88.327148   70.401085
H   84.435966   79.564896   74.137444
H   94.593231   21.556896    0.669985
H   61.251049   75.127724   27.192425
H   16.980322   49.970493   84.453369
H   53.178177   47.542004   22.487417
H   17.371975   51.272747   18.389807
H   56.778439   95.070862   67.520721
H   47.984558   30.752674   58.336685
H   28.966261   78.076286    6.706799
H   45.181629   35.278564   51.869400
H   75.576920   65.507889   38.604500
H    9.655218   78.136658   40.673325
H   52.521912   49.268181   58.967720
H   70.058815    6.913318   82.670135
H    5.652187    2.351303   63.096741
H    9.922737   10.234123   76.635963
H    5.263486   62.730568   64.220604
H   53.721294   47.785934   68.352592
H   20.239201   71.825928   88.288368
H   70.326233   28.406790   59.673428
H   55.355797   37.841995   57.367584
H   31.243500   46.749641   69.689468
H    7.747726   94.494049   64.330978
H   16.537987   87.717262   97.024483
H    6.692228   61.052116   18.542002
H   10.923756   83.024231   34.413280
H   11.702044   71.146858   28.962585
H   39.352394   54.243271   53.121113
H   26.620743   34.845425   81.312500
H   14.640558   36.769962   46.038338
H   76.142097   30.186913   65.584564
H   75.838165   39.497547   13.552792
H   17.116650   36.773098   28.000418
H   28.765493   42.568531   35.245609
H   54.501320   27.969582   44.587791
H   45.933540   87.971481   62.422501
H   86.756035   17.777580   49.041153
H   25.704931   25.085506   25.686579
H   24.808933   81.703499   86.980659
H    0.317728   29.426401   58.543846
H   67.674187    7.253994   77.174446
H   30.154387   69.002113   51.817966
H   16.118050   40.498123   79.298668
H   80.996231   43.377380    9.386807
H   28.505489   64.618919   13.991939
H   13.660234   99.536980   85.122871
H   11.709070   30.474207   95.215057
H   56.572514   55.205162   49.020882
H   10.496480   11.013626   70.251343
H   20.168814   96.122696   37.886009
H   94.520874   23.507830   17.969820
H    5.960233   17.962393   67.573845
H   80.452858    0.268796   83.108131
H   89.228500   82.654274   38.520821
H   93.449875   13.479879   67.464294
H   94.249779   23.193439   80.482224
H   19.592669   65.425171   84.549278
H   47.580070   78.602776   34.236263
H   40.473045   30.231018   65.235779
