100
TIME:    2.957, STEP:  2957
H   17.352543   50.849327   96.438797
H   19.015984   65.070282   64.526657
H   30.582930   86.642792   88.628105
H   81.972931   10.821424   78.080627
H   68.685471    9.774091   85.528748
H   82.166878   98.004555   71.588158
H   97.994698   61.009743   21.694191
H   87.471924   44.419559   36.692211
H   80.939232    1.989813   13.953985
H   94.034737   58.841499   23.482370
H   25.202087   85.223969   54.915653
H   42.981102   71.909851   82.446815
H   55.166626   82.804672   31.227486
H    8.667832   95.961555   82.269188
H   16.468662    5.896369    8.631278
H   82.629501   53.099091   87.584328
H   86.322731   77.552689   42.575726
H   64.334557   50.901787   97.029480
H   91.322884    2.401390   19.149149
H   12.853432   43.019367   17.658899
H   88.804153   61.839584   76.983597
H   45.870819   48.009445   67.462418
H   46.263817   70.573128   47.747620
H   44.304184   72.146271   87.460991
H   23.824474   51.655151   58.378731
H   33.100353   39.500263   12.012100
H    7.093014   19.557573   58.644894
H   83.038628   94.462486   64.516991
H   75.467743   17.374258   17.393263
H   14.378200   17.654617   18.461555
H   32.431095   87.215439   75.430519
H   52.463936   70.810829   25.519737
H   78.645111   52.133873   64.186867
H    3.040955    2.731414   47.176819
H    7.267805   35.393707    4.790161
H   29.654343   16.772242   10.475202
H   63.412834   96.243149   41.465267
H   41.772514    4.832689   31.108746
H   20.256035   16.989019   57.756866
H   84.676880   35.358681   70.685768
H   33.161251   57.643353   12.011659
H   65.862846   44.570778   41.723083
H   36.711208   81.232193   15.061120
H   90.535110   62.332123   69.852989
H    0.158159   15.224224    9.149184
H   39.938236   19.317036   95.175789
H   64.836227   85.649017   53.845428
H   56.397335   25.828382   51.540321
H   51.464012   87.550957   26.517599
H   87.898857   75.750938   76.847565
H   43.319019   84.164017   84.594971
H   48.836948   89.351669   79.940666
H   70.217491   39.154419   31.131016
H    8.218113   58.963974   62.300629
H    5.351906   17.727844   25.498762
H   97.266098    9.424286   91.963547
H   83.712578    4.223639   37.222832
H    5.872178   97.635117   37.391068
H   23.489296   63.709255   84.473030
H   63.885818   55.073772   79.506477
H   46.230812   41.057423   83.844711
H   93.964897    0.418827   61.561584
H   74.811897    5.502411   30.700119
H   46.091690   57.879845   46.859707
H   49.691624   24.673016   70.941597
H   19.691841   95.271706   21.025429
H   50.323097   50.592464    9.825866
H   76.105492   86.650757    7.564300
H    4.277416   37.315163   74.775429
H   90.294006   96.870674   95.506531
H   28.134964   94.205070   26.677982
H   30.149290   53.388077   73.120300
H   14.189524   72.039879   85.929436
H   65.118431   62.256042   27.465248
H    4.741254   32.853443   25.558914
H   95.561256   97.088249   96.961487
H   35.431202   70.254532   43.345722
H   70.905563   57.370724   77.744598
H    3.312911   44.833088   50.673088
H   54.508522   47.909992   66.173019
H   68.746597   59.873180   56.721561
H   63.192360   63.539017   39.515358
H    4.888327   56.614227   11.539461
H   53.586361   65.195892   93.340973
H    8.347613   63.923923   61.104439
H   83.236084   17.669136   47.126324
H   64.646065   88.354927   64.544479
H    3.556181   68.549850   64.991188
H   17.048874   29.530695    4.007706
H    4.899502   87.615921   29.923904
H   45.035248   33.101604   95.908157
H   97.079132   17.889421   89.868172
H   75.004074   16.241018   47.673790
H   33.033115   92.596474   26.194359
H    5.464702   84.859528   84.036034
H   38.157684   78.962837   14.716276
H   27.889343   37.376598   67.129799
H   17.721327   41.414764    8.721811
H   67.848808   49.596760   97.356865
H   22.881968    2.753649   12.882047
