100
TIME:    3.457, STEP:  3457
H   83.539703    4.996863   95.981033
H    5.106949   92.177521   96.066574
H   39.177444   22.614212   82.761101
H   82.056854   90.221062   50.673985
H   64.207016   49.851299   71.971313
H   74.415413   97.462868   21.104044
H   71.787727   94.770149   60.794838
H   48.172913   87.676498   90.783424
H   68.648277   53.916962   82.481468
H   80.370491   66.020760   43.063210
H   78.693314    5.342518    6.754099
H   23.896172   96.972412   46.855690
H   23.362976   52.554123   81.531059
H   83.910774   94.420418   20.318989
H   22.551197   61.234085   84.597786
H   62.526047    9.367256   46.080421
H   46.115822   10.625176   88.092697
H   75.015709   26.586906   79.695496
H   99.112495   23.378283   45.489635
H   99.383568   32.403065   51.701256
H   59.133438   12.061600   63.411072
H   93.806305   48.673203   24.882767
H   39.588097   66.506660   33.442505
H   97.848717   78.142975   50.327320
H    5.942544   12.001373   62.070534
H   30.806726   24.602922   65.145409
H   63.978970   98.772720   68.565163
H   40.850170   17.800766   81.042259
H   86.339630   62.738022   93.758675
H   33.549194    5.278913   58.210052
H   52.111118   32.051693   35.872108
H   84.034370   56.995934   79.232262
H   13.863516   15.551785    9.230817
H   24.168072   56.909309   26.112595
H   94.838745   97.597282   35.235260
H   73.129494   56.051441    8.753961
H   11.370633   77.932602   80.863457
H   21.108299   95.683250   66.391136
H   99.150055    6.096151    9.303476
H   37.582767   88.550446   10.023417
H   98.990875   74.800446   23.791121
H   20.925713   67.012131   65.213989
H   41.018002   84.230545   51.175755
H   58.606094   70.709961   18.741419
H   56.785694   95.496857   51.935848
H   33.487583   28.853779   97.205208
H   68.742477   12.840966   58.648132
H   56.424038   30.976316   82.477516
H   66.078659   46.140251    6.572003
H   98.381645   83.357445   41.876835
H   43.280872   35.892838   89.866882
H   73.136566   42.955589   47.117046
H   80.585838   42.053589    2.091617
H   96.639397   50.804337   84.364838
H   65.541794   61.547272   29.750242
H   97.891708    8.898108   74.942368
H   15.411315   89.796242   84.776848
H   68.640862   50.416794   24.511539
H   62.921822   84.835052   46.087765
H   30.892502   93.503922   65.285286
H   77.770729   17.806255   44.860378
H   76.218925   95.764816   38.936615
H    8.755589   71.383598   96.413597
H   80.425957   60.599724   33.283199
H   69.538429   84.739296   17.504507
H   88.976295   70.415138   50.588623
H   10.206703   67.877716   33.967022
H   41.567223   15.246642   31.467192
H   29.198456    1.388359   43.416111
H    0.425754   22.019289   94.453674
H   12.256512   60.185600   20.679371
H   88.921738   36.794144    9.726665
H   81.588379   47.307957   73.112053
H   54.112041   30.613213   97.751457
H   28.847853   33.566792   63.462070
H    7.381196   29.133554   63.315937
H   80.828499   26.916531   52.188190
H   94.396469   24.675383    5.355984
H   27.288702   43.364429   56.253990
H   29.987648   20.677662   23.097458
H   78.527481   65.045914   86.605896
H    0.706232   66.804398   97.704834
H   36.523273   64.960785   59.162052
H   87.986145    7.981719   47.672783
H   84.001770   32.647221   12.634962
H   71.730957   36.035416   81.847702
H   98.039925   52.000862   88.386337
H   11.603285   28.518417   59.791031
H   27.426758    1.692471   99.917000
H   60.694202   67.047073   47.795982
H   65.497284   60.098217    6.467324
H   34.076340   55.490891   99.397285
H    7.054921   31.244223   86.339561
H   81.360146   22.924850   59.905167
H   96.819664   40.072941   95.525902
H   79.455597   59.217964   88.890236
H   88.202209   66.070747   38.374611
H   19.556196   45.671967    0.721418
H   44.029839   51.752064   55.477715
H   53.937420   89.921730   64.716919
