100
TIME:    7.371, STEP:  7371
H   18.851648   46.064705   92.397659
H   96.908310    4.286499   42.870625
H    6.471620    4.203650   36.816525
H   82.713806   28.965996   36.132961
H   29.148458   63.575497   65.847153
H   13.712489   93.222542    8.720615
H   66.654419   59.064091   66.874954
H   40.540230   26.287251   31.413055
H   72.434624   77.601746   36.108517
H   73.431465   22.221636   96.322212
H   14.622559   62.830753   29.737803
H   74.511688   93.160934   68.253258
H   73.725487   15.828970   92.597054
H   90.113716   82.356392   18.176044
H   70.134163   11.618767   96.431915
H    5.150825   67.034363   21.183584
H   31.375221   69.504074   44.399563
H   58.693203   36.166031   44.009323
H   60.067524   87.575378   51.693600
H   93.931046   49.279987   18.184519
H   26.871124   22.410782   57.179295
H   69.045288   53.869095   91.569565
H   87.328728   34.674355   21.457457
H   34.185516   25.006807   59.640175
H   65.955025    1.601967   90.976418
H   12.852428    8.805225   97.238365
H   26.468992   36.073013   46.221546
H   10.598542    0.493077   10.417710
H   71.446083   17.846869    8.741442
H   83.630402    8.407396   69.361992
H    6.149683   83.027267   26.208946
H   31.166592   48.856861   16.893639
H   89.560188   29.184481   61.834846
H   89.543663   98.214638   61.222641
H   97.511681    1.581922   73.510162
H   13.386261   62.757187   96.252541
H   86.773727   34.594360   89.271393
H   59.333588   24.058842   42.591873
H   33.940090   20.814878   30.007313
H   68.926811   22.134729   17.969057
H   31.495390    9.101361   16.002043
H   79.026161   70.508530   56.261463
H   74.722076    7.704336   33.888683
H    8.681227   36.364464    1.433269
H   17.276512   41.069515   86.866158
H   82.978508    3.506810   13.106752
H   99.320602   25.698540   96.218086
H   56.637508   71.288895   24.653225
H   80.491280   21.984074   50.442947
H   80.495361   42.924770   68.152992
H   42.995464   58.021149   31.127041
H   63.359219   79.765015   90.176392
H   61.770779   64.748291   74.773445
H    5.999146   86.938660   57.077957
H   53.905106    4.563629   63.044750
H    2.776331    4.780147   41.700562
H   63.539745   76.859245   57.030907
H   77.195969   80.787224   23.695532
H   71.609917   50.218616   45.613884
H   72.607948   94.347061   53.961815
H   24.669123   35.786140   39.694504
H   37.306740   59.333847   61.841568
H   74.478569    4.298865   28.018860
H   49.193661   81.916031   27.016415
H   24.889683   72.135590   81.997902
H   48.535187   75.839134   82.014893
H   96.178925    3.198098   22.934385
H   71.200325   39.093254   18.579025
H   24.271294   20.153275   97.935516
H   79.725945   18.871431   86.209824
H   87.969337   93.878952   73.731117
H   66.282539    6.853309   96.338081
H   26.388525   53.711712   72.758606
H   67.940956   82.908508   65.193756
H   17.539766   39.168591   60.175861
H   99.909569   79.985374   99.955299
H   36.227253   87.821602   21.466932
H   78.283310   68.749840   21.511850
H   14.980372   31.867771   99.916725
H   38.043777    7.485885   85.903023
H   55.114403    5.538735   20.537491
H   94.410896   92.272705   70.345573
H   84.107491   30.387243   31.919975
H   57.261478   42.911861   90.190483
H   93.423279   87.820946   33.216499
H   81.647934   79.804214   53.647858
H   59.447208   67.420723   75.021049
H   74.574974   15.238764   19.152107
H    8.651963   83.767036   67.905525
H   14.643050    6.011509   87.712387
H   25.674427   71.443230   89.123825
H   23.678255   49.848785   73.971260
H   57.948780   48.686802   89.015327
H   59.644180   60.362877   23.813974
H   29.152988   89.480057   85.464600
H    2.735961    4.659737   86.727043
H   77.527153   90.686447   13.275718
H   24.049585   51.175541   30.909430
H   57.575584   68.631966   27.638721
H   97.053230   89.482376   87.668381
