100
TIME:    1.207, STEP:  1207
H   35.697426   11.333235   98.040970
H   67.695335   70.188057   54.137417
H    0.502539   60.740383    9.167709
H   81.679199   82.921165   74.004509
H   84.360062   69.503899   32.977699
H    9.299694   99.900459   98.278465
H   89.711662   42.840557   84.841743
H   25.018478   93.023209   97.370705
H   23.957634   70.245239   24.110350
H   41.855125   33.714088   54.956604
H   87.982834   14.808532   23.485456
H    9.771122   84.191490    7.013817
H   66.483749   88.682076    5.163357
H   95.318398    1.355859   49.094036
H   95.181786   62.210423   92.752579
H   52.993637    6.162868   32.849106
H   27.025757   61.817825   83.250023
H   26.937294   36.004379   57.701950
H   64.059242   28.988413   26.952127
H   59.997368   80.182236   98.510857
H   92.651550   36.056908   24.484562
H   78.082817   45.693039   16.480915
H   69.628838   84.805763   97.815521
H    6.898182   51.157810   17.431618
H   86.415154   90.449379   45.467888
H   41.124569   91.644714   76.040222
H   57.998657   92.303238   23.917799
H   30.698166   12.778245    6.669132
H   37.416138   58.600376    0.117598
H   47.274624   60.966690   79.341820
H   63.581699   30.282198   13.900555
H   41.967808   19.165283   87.526054
H   55.378048   80.172615    6.533047
H   29.100533   63.108376   20.902166
H   50.769951   67.680183   98.227554
H   77.498657   79.300186   16.491217
H   95.566277   60.333351    3.572264
H   14.104549   36.862629    7.616832
H   96.457413   54.742104   26.441528
H   49.507118   99.187431   32.998043
H   52.755287   97.598045   70.780930
H   23.142906   66.030540   59.506992
H   21.637434   70.737961   88.656136
H    2.284771   32.999008   98.748421
H   51.956635   84.268478   59.396149
H   62.515522   85.938454   88.072823
H   48.824879   90.851135   37.936958
H   56.303875    7.810613   43.260235
H    0.314437   32.485435   96.325577
H   51.204441   49.120708   99.246666
H   43.452534   53.115639   66.143280
H   63.790779   51.738934   94.823807
H   33.917213   29.007324   32.768669
H   48.739735   87.511711   85.078629
H   44.671150   64.318024   10.648346
H   95.076462   11.263447   51.537674
H   72.769333   54.719566   70.783165
H   36.182556   62.901466   82.465530
H   85.470512   89.766769   18.820934
H   79.368729   20.561590   29.279625
H   35.839642   22.441010   20.288948
H   56.072357   16.710770   40.742401
H   56.103882   24.845387   50.753273
H   25.921396   48.360268   94.368950
H   80.230812   64.444176    7.966382
H   27.197243   82.269569   17.552610
H   90.728348   90.092041   25.336765
H   96.989876   86.566330   23.904181
H   17.058083   63.059006   84.531593
H   54.836029    8.851103   99.191528
H   83.704124   13.276529   47.671360
H   74.443802   11.467505   44.992821
H   28.293545   58.601582   30.799374
H    3.624989   72.999252   31.473000
H   20.366604   30.361116   92.896294
H   54.195332   84.930321   14.714225
H   76.543266   21.932043   12.391481
H   88.687378   71.799034   81.098480
H   19.406748   49.966648   31.146938
H   40.332047   43.218666   16.936920
H   34.502003   41.768627   52.127941
H   31.885021   52.110184   85.848587
H   94.167946   27.402327   44.860600
H   33.200756   15.446145   53.183907
H   93.558060   73.386398   30.747246
H   23.511494   53.391224   25.601158
H   47.767525   15.594200   81.097458
H   75.385483    8.659286   83.195580
H   80.730904   26.968004   18.324795
H   59.623032   59.617943   67.362938
H   73.417946   38.606220   58.951366
H   67.592735   86.284279   56.519272
H   62.727333   63.794411   12.291525
H   63.889923   86.446388    8.200887
H   35.724781   41.614273   43.821495
H   93.614807   48.067558    5.105730
H   66.796371   36.947567   67.773392
H   11.296842   26.514557   36.724464
H   51.213280   42.053196   43.946018
H   14.200211   47.701069   81.434395
