100
TIME:    1.149, STEP:  1149
H   39.619789   16.652046   98.094070
H   69.308708   67.043617   50.478786
H   99.505859   56.567562    9.848724
H   81.669464   85.310692   77.183464
H   84.879562   64.854942   34.550362
H   10.199085   99.963295   92.534752
H   92.751671   38.923946   80.306068
H   29.577164   88.005203    2.695978
H   25.383385   75.821686   27.761236
H   43.440178   32.881294   52.685226
H   93.377853   12.474872   29.072302
H   11.984974   81.284233   11.142179
H   70.173355   92.191139   10.928006
H   98.190254    1.534672   44.680050
H   94.476433   67.391113   95.540359
H   55.325638   11.236187   37.663559
H   31.688652   57.982193   77.969170
H   25.697838   38.824905   59.712692
H   63.156059   26.555079   23.896631
H   61.559853   81.414169   94.561943
H   96.093353   41.831154   26.058773
H   72.521416   45.616486   21.419712
H   70.403221   85.277473   99.474915
H   12.287018   50.462193   21.739403
H   88.489616   95.049660   45.039986
H   41.390514   93.373138   81.476837
H   63.000290   94.714005   22.766844
H   35.591827   10.070889    4.752035
H   36.154999   53.338108    2.859183
H   45.050594   62.402176   74.730919
H   61.300144   25.080774   18.489994
H   38.305637   20.767593   92.895409
H   51.292400   84.416237    1.307947
H   26.649940   68.423744   23.345457
H   52.211632   72.064522   94.695480
H   72.455872   74.744156   16.690786
H   90.003105   62.457375   99.002144
H   16.501686   37.924198    3.524049
H   99.064651   55.980232   32.000717
H   54.969841    4.617250   28.434664
H   56.718803   95.607658   69.414474
H   28.355614   63.427628   56.782047
H   21.137846   70.390152   84.466499
H    5.988371   32.026825   93.077278
H   56.987473   86.557114   54.432571
H   63.263798   84.832191   87.837410
H   48.212452   87.722626   37.441353
H   56.300777    7.213453   39.671520
H   98.618828   37.288826   98.638992
H   49.987995   48.237911    3.303209
H   43.456959   58.715096   65.531738
H   60.972023   57.121120   98.631119
H   32.714043   28.671021   36.137459
H   50.082737   88.457787   82.519180
H   49.288689   59.233227   10.156170
H   95.003891   11.324402   53.512131
H   69.092117   56.393120   65.266899
H   40.501404   68.378792   83.959427
H   80.895897   87.316177   23.273640
H   83.196396   16.103354   30.929283
H   32.181011   25.138077   24.810905
H   58.130890   17.250626   43.366898
H   52.169571   28.800716   54.732277
H   21.938631   48.044762   95.943382
H   77.928902   69.076317    2.564946
H   30.760292   85.152931   14.123259
H   95.381729   88.086609   22.536373
H    0.996343   83.249313   21.131445
H   14.167269   67.226517   88.168983
H   53.661179    5.933818   99.313660
H   85.545830   17.223009   48.366978
H   79.226395   13.392511   40.746101
H   32.075409   61.470341   32.286633
H    4.901513   76.669388   34.920113
H   17.570194   30.278589   88.499565
H   52.824009   81.213280   18.616859
H   71.277458   26.959120   11.365202
H   85.962433   75.591301   77.895630
H   16.626490   50.136570   30.500217
H   43.176468   46.377708   21.933685
H   33.366978   41.168591   48.661358
H   27.533207   51.731400   90.698441
H   90.497810   26.434347   39.336369
H   29.210691   10.483010   58.481575
H   96.382126   77.014053   36.369713
H   24.846531   51.260563   21.573479
H   43.893837   19.811272   78.331802
H   74.451797   13.302822   83.798271
H   79.527290   30.197184   18.799381
H   64.750778   62.004372   65.289360
H   71.044350   35.474613   57.726513
H   63.301319   81.922066   55.414337
H   59.005867   62.056694    7.804414
H   58.283829   82.928474    4.290303
H   36.727497   46.809723   42.488670
H   88.824249   50.357964    8.101599
H   71.400192   33.619045   71.108994
H   11.083886   26.020721   37.652397
H   53.976280   41.803181   48.804279
H   10.598221   49.190983   87.020576
