100
TIME:    5.122, STEP:  5122
H   70.942543   52.307808   94.456680
H   59.017891   82.417664    1.063546
H   67.798859   42.400787   63.223469
H   82.336319   21.624214   59.410133
H   49.293762   83.308395   26.825787
H   48.595455   95.659050   85.995110
H   84.525948    7.198780   91.000076
H   17.307198   31.719997   37.909061
H   27.719398   93.833878   77.675896
H   34.868553   89.927696    8.260237
H   23.819061   72.337387   46.372265
H   60.350578   80.430138   28.339071
H   17.221573   51.853127   16.074219
H    1.470497   89.288429   47.027191
H   42.802650   12.509913    4.561611
H   95.578644   63.740189    7.870108
H   12.226419   20.751728   39.664215
H   10.598388   45.598339   21.970781
H   25.045303   93.226440   33.208775
H   54.519463   97.043983   65.062202
H   60.329979   46.306534   18.224770
H   53.431473   50.883514   83.092682
H   17.357948   52.965324   85.803268
H   43.150494   98.102264   26.668480
H   46.391510   79.959671   74.366982
H   23.197355   75.239471    8.768591
H   20.402712   29.560997    1.593346
H    0.362925   95.517365   36.078804
H   22.544334   13.800070   15.052616
H   97.394180   64.070183   90.573250
H   17.637646   81.354935    4.142601
H   89.163521   10.998235   25.094826
H   31.143696   93.732857   59.227165
H   94.517670    4.322043   55.969170
H   53.452560   71.736130   36.621964
H   17.884352   86.605431    3.323578
H   71.064758   16.956913   12.058793
H   52.289097   65.221596   83.886757
H   28.871029   69.817619   47.952209
H   80.757927   32.678558   41.022755
H   85.199600   31.931364   63.017803
H   71.284294   41.736145   43.433567
H   55.359623   94.215057   71.440468
H   52.285686   98.615356   81.537888
H   12.360514   29.803856   94.413475
H   12.006317   60.611134    3.969311
H   81.750290    3.389077   74.632683
H   56.512959   48.124908   85.498283
H   14.752731    8.246441   40.155563
H   33.301434    8.691465   25.424965
H   43.153843   75.147324    7.421010
H   54.051796   88.456085   37.812508
H   15.116876   51.707825    5.390722
H   58.075218   23.632744   57.835899
H   32.974182    7.472137   43.913013
H   99.974991    7.145876   18.261841
H   20.964890   41.753716   43.132332
H   44.660538   93.177681   81.623886
H   94.238548   55.186279   18.263905
H   21.020138   21.481754   17.928719
H   82.800110   40.375118   15.045089
H   17.126440   80.267227   63.602074
H   21.792517   57.767136   82.239532
H   94.757851   69.664856   88.076782
H   35.623085   51.759052   72.558525
H   86.693535   87.643364   49.035942
H   76.620697   25.443974   14.352257
H   26.554344   10.469607   11.063819
H   12.180916   81.752083   38.990059
H   34.157928    5.763248   90.947662
H   59.386131   46.899414    0.704467
H   51.634232   81.535645   31.630268
H   73.027252   64.949379   30.420174
H   17.454449   25.247963   98.822289
H    9.124206   35.942242   89.680023
H   46.746941   35.844727   51.283169
H   31.999014   82.605659   81.633614
H   72.621201   15.804958   97.307655
H    7.132604   38.473797   74.830986
H   48.332672   29.997963   79.656403
H   11.101439   82.271103   86.119179
H   25.635254   77.678116   58.479149
H   41.853188   92.777283   17.736700
H    2.535811   50.459885   95.601959
H    2.929739   28.500648   51.231911
H   33.408741   97.193184   97.470291
H    9.241537   30.941803   67.780243
H   38.401657   95.215332   42.476921
H   61.979599    8.987810   86.299446
H   13.484712   98.540939    7.317528
H   33.636040   50.004177   41.629070
H   57.275028   80.702835   31.122473
H   13.783423   81.207222   15.096699
H   42.288895   23.919432   72.167763
H   68.034798   90.931694   33.783176
H   16.977829   93.470001    2.890835
H   56.041954   61.621746   42.618240
H   25.666311   59.848450   74.070900
H   64.712830   58.929226   16.015396
H   57.356861   47.194035    4.321593
