100
TIME:    4.210, STEP:  4210
H   32.616608   35.942810   95.291641
H   84.205879   32.997528   43.560028
H   52.120781   76.788445   73.925392
H   82.183243   59.198418    9.397977
H   57.462463   10.207568   51.553818
H   62.741085   96.647087   95.676170
H   32.324642   45.617626   19.680490
H   88.988594   52.819683   21.645367
H   50.138100   81.518997   35.082256
H   59.792137   76.832726   72.550293
H    8.651077   35.640858   34.221210
H   95.155266   34.716026   93.257088
H   75.418350    7.002731    6.695376
H   46.626152   92.099464   77.623337
H   31.711494   93.973511   48.402225
H   32.250244   43.507133   83.574158
H   85.563911   60.428165   56.641258
H   91.101524   89.968224   53.588223
H   10.840530   54.969673   85.161469
H   79.092461   16.412111    2.969013
H   14.449341   37.098766   42.976341
H   65.997147   49.672821   60.757889
H   29.534462   60.382561   11.896594
H   27.886909   87.174011   94.401291
H   79.010651   52.286240   67.631630
H   27.354765    2.195311   94.529457
H   99.045464   67.474319   83.501991
H   77.313812   52.948273    5.930338
H    2.712874   31.055790   58.163063
H   62.423233   86.641960   18.071476
H   81.745796   99.574928   76.297142
H   31.579054   36.193527    9.523232
H   66.905251   60.458580   77.067001
H   55.984222   87.901428   94.391289
H   76.121750   40.676476   81.087723
H   38.605427   15.174498    6.192719
H   83.592575   50.356918   40.196766
H   89.985420   81.906898   19.529995
H   67.369080   89.689690   36.331627
H   66.657585   18.056927   69.269348
H   47.527756    0.641035   41.531475
H   53.250320    0.803946    0.591263
H   47.504032   88.746063    5.567070
H   10.522280   83.325836   92.366333
H   91.469383   65.784058   16.371759
H   23.772900   43.216114    0.261917
H   74.625290   53.792198   65.879509
H   56.464252   38.731598   29.068840
H   88.093246   83.777435   76.536591
H   14.173869   94.812843   89.211769
H   43.223423   63.195198   97.806381
H    9.731035   73.083405   97.682251
H   96.200569   46.419739   58.360287
H   79.197777   38.515923   17.592030
H    5.587883   27.542482   36.154835
H   98.833878    8.105307   49.308472
H   63.145992   68.068901   56.393501
H   12.570394   79.304955    5.114576
H   22.310698   16.651447   88.279243
H   81.201935   51.383480   43.868172
H   25.270895   82.787254   86.151161
H   49.493492   88.755997    4.863815
H   59.878452   20.000237   44.778130
H   32.132240   64.696838   12.836979
H   99.423576   24.597916   87.627769
H   42.718086   32.981148   95.111862
H   49.792557   93.913757   70.320969
H   89.552147   58.311783   67.464943
H   66.729691   47.282578   96.187927
H   15.681345   59.894882   92.868073
H   88.345360    8.951183   11.645462
H   26.833691   11.803439   64.859550
H   32.492172   10.063549   53.806038
H   37.532162   82.962761   53.009911
H   65.150520   34.641094   20.544676
H   25.184076   77.394981   12.650360
H   49.196068   61.652668   65.504951
H   29.773785   75.439766   46.943237
H   63.395615   41.152630   64.658379
H   93.058746   79.668846   58.225945
H   93.257492   72.836044   31.610174
H   57.207291   71.722061   34.740356
H   84.163582   77.530701   30.881725
H   39.791321   72.417793   78.898148
H   47.337601   85.546730   39.640060
H   54.401051   63.697273   34.138504
H   48.331108   97.251617   24.292692
H   23.722223   68.231483   51.960686
H   43.053818   59.766014   93.758430
H   94.117722   36.065208   74.713287
H   96.313110    0.760247   22.369303
H   89.793793   12.114769   13.746393
H   55.322639   53.839050   44.570293
H   54.140987   68.601669   10.677713
H   83.801643   72.624077   12.828574
H   41.650345   29.482430   49.997032
H   28.432087    9.283835   95.067703
H   22.319510   52.083313   88.668800
H    8.158470   54.997952   92.404778
H    0.711360   70.595772   92.177261
