100
TIME:    4.011, STEP:  4011
H   46.074371   54.192169   95.473831
H   89.701942   22.213404   31.011755
H   48.700165   62.471352   76.260460
H   82.149841   67.396965   20.306070
H   59.244888   94.256844   56.949677
H   65.826790   96.862679   75.969292
H   42.753498   32.179600    4.118385
H    4.629608   35.604252   39.917500
H   55.029900    0.651991   47.609333
H   65.230507   73.975380   64.758636
H   27.161575   27.633610   53.389111
H    2.750084   24.741129    7.422033
H   88.116989   19.037136   26.469070
H   56.479591   92.712837   62.480167
H   29.290646   11.748837   57.968716
H   40.251419   60.912346    0.092717
H    1.566288   47.266460   38.525505
H   86.850426   99.645546   60.488667
H    7.741040   46.620819   74.676437
H   84.454918   20.638159   89.420189
H   26.258286   56.910404   48.376755
H   46.918823   49.408646   77.704590
H   32.191399   62.001015   17.590515
H   46.376152   84.787323    9.180721
H   86.128204   68.068054   66.161964
H   28.264376    8.096112   13.219790
H   16.205454   75.745743   79.554543
H   94.105652   43.659622   99.352257
H   98.385681   13.001462   67.570137
H   54.792511   91.567162    2.252017
H   73.914665   81.729424   92.041389
H   19.014021   41.691109   27.945671
H   52.887569   75.018593   59.139511
H   47.576157    6.138561    2.774851
H   81.068207   55.719292   68.969055
H   21.304327   99.570160    6.841706
H   64.505142   57.644516   24.516287
H   98.211296   85.547661    5.487455
H   75.768036   94.025810   55.616432
H   85.401894   36.686798   53.612148
H   61.128235   93.812073   36.843121
H   71.135300   91.873489   91.241913
H   45.789928   87.552719   91.192650
H   23.229269   79.991760   72.908447
H    8.731493   73.636444   99.342346
H   26.340260   39.420490   99.453804
H   73.070602   42.970116   63.969528
H   56.453625   36.681961   16.755836
H   82.275314    0.259522   84.473999
H   10.000201   91.785454    3.130757
H   43.238605   82.407127   95.708160
H    0.060543   91.548355   10.746426
H   92.073967   45.265869   69.917946
H   83.807182   41.763458    8.811233
H   21.432114   10.102350   34.461987
H   98.584885    8.314825   56.082901
H   50.530857   73.810921   37.467003
H   27.388420   98.097847   10.240566
H    6.616552    8.242973    3.556053
H   94.334793   36.087116   49.528206
H   12.717348   92.042503    1.667539
H   56.556389   90.608261   13.868239
H   46.367550   33.580132   58.424156
H   18.467230   63.613350   18.240429
H   91.525642   40.492115   69.096016
H   54.943031   42.874062   83.345428
H   65.758469   87.033051   60.713482
H    3.298470   46.930984   57.951595
H   56.811386   61.581451    8.668760
H   11.649633   49.885063   93.287109
H   94.664314   22.491493   14.032909
H   43.241653   18.408066   50.288998
H   45.467133   19.906361   58.908875
H   41.913830   95.555122   64.834038
H   55.556522   34.357182    5.458623
H   20.479021   64.641685   26.040466
H   31.127417   78.900192   61.985645
H   20.424404   88.451164   35.952629
H   53.853416   41.737156   62.437630
H    2.818108   90.506111   75.370018
H   89.364700   70.777298   19.716967
H   42.275307   70.422440   51.380371
H   71.574257   74.208771   11.927898
H   26.100939   55.389107   97.074631
H   57.027069   97.993340   58.930939
H   58.981609   56.386902   20.319397
H   35.040352   11.720558   14.803585
H   20.519476   84.163994   54.030060
H   38.924179   70.846199   95.385994
H   11.711938   44.253128   67.598770
H   88.169220   90.014137   18.166788
H   75.069809   97.149956    9.954229
H   42.566307   47.867775   29.181314
H   34.906284   56.530647   97.260139
H   87.241997   90.448326    8.255986
H   25.213776   37.340645   60.275581
H   44.227783   97.863869    6.512486
H   21.589231   50.388947   91.854088
H   17.638420   54.140141    9.072945
H   88.349846   75.703163   11.347352
