200
TIME:    0.371, STEP:   371
H   13.496567   62.040234   17.579596
H   29.131893   34.790615   95.215256
H   15.391979   74.872002   51.800652
H   22.258329   78.504921   41.074078
H   13.819283   87.049423   51.775036
H   85.356934   49.259449   61.671864
H    5.257178   55.211182   52.186970
H    5.824264   94.543274   20.422386
H   92.748550   85.542305   44.523674
H    6.249761   73.063896   90.905296
H   16.759771   97.392647   97.101395
H   31.319504   45.519421   18.984161
H   14.389407   91.355492   55.922630
H   98.211731   53.759632   48.578335
H   13.297150   72.953033   42.656269
H   25.481987   20.568832   51.497059
H   90.370026   13.853876    9.071795
H   33.451389   89.464577   41.188148
H   69.384026   24.959272   44.412273
H   90.473022   77.905663   32.392513
H   59.657211   83.297661   19.838772
H   87.112633   53.821617   65.526466
H   91.082367   61.588982   45.992935
H   11.382957   89.253525   91.175308
H    8.940405   17.972651   40.735920
H   18.552652   68.149940    2.629927
H    1.432548   61.425312   54.348969
H   97.516632   75.533463    1.075967
H   16.586060   52.547920   37.571285
H   87.129677   24.273666   94.094391
H   13.190461   56.922245   16.354975
H   29.543861   66.576645   96.828354
H   23.958038   11.804364   74.779274
H   92.090935   63.720840   40.580040
H   41.701893   84.387985   33.222637
H   28.782108   46.935093   80.978653
H   90.024399   71.601555   86.938393
H   26.435183   48.143951    9.277430
H   48.221916   41.709694   47.343533
H   88.826439   39.149784   58.579193
H   80.543289   99.104347    5.872454
H   19.859728   40.359898   35.946774
H   74.343155   84.772583   55.192608
H   36.989426   69.596397   23.433510
H   33.252865   80.291954   49.091316
H   39.216305   10.429246   44.112595
H   82.442795   19.794209   99.051430
H   86.926575   65.548607   42.938248
H   92.146584   23.780895   61.260780
H   57.429474   18.392679    0.170155
H   75.091949   68.838028   22.677086
H   16.130369   37.952740   66.358177
H   55.709324   90.673294    9.642035
H   20.456915   84.948181   83.643097
H   71.653946   73.471535   86.536682
H    3.626328   69.122833   82.937866
H    5.056627   17.241188   48.249363
H   68.839890   61.624722    2.939052
H   25.416931   77.008072   10.294868
H   40.073456   95.253578   64.572563
H   49.995251   12.820560   38.409107
H   92.290398   16.735212   50.070129
H   75.056328   27.920227   80.465347
H   27.300043   65.339233    6.592334
H   73.454216   78.031998   23.286407
H   33.601025   21.650578   35.218002
H   81.281837   20.398756   88.541634
H   96.607826   91.747765   89.865128
H   21.182175    7.623525   60.321716
H   44.482880   43.913231   50.975597
H   58.407696   78.857887   76.785416
H   28.458773   20.378475   43.847832
H   81.651505   27.927853   95.109169
H   12.133142    6.085233   64.386086
H   80.740158    2.992165   61.453102
H   56.624939   14.451687   62.021442
H   94.873886   34.827015   70.292595
H   21.703157    8.355377   43.487999
H   12.526512   35.529816   32.037052
H   66.302177   89.936348   88.049042
H   48.928043   27.888016   99.188950
H   32.396561   66.234543   83.807457
H   10.488619   15.103261   86.446823
H   20.402164   66.143242   98.121185
H   34.243282    0.709111   54.069736
H   28.357935   81.190842   25.055820
H   41.726490    3.057084    2.071647
H   74.242088   13.668714   16.383223
H   69.695175   72.376099   77.642639
H   22.787991   91.918930   53.424297
H   35.751339   36.023674   80.171806
H   83.142929   89.684830    1.226252
H   53.482773   15.384661   91.998878
H   54.153595   89.727234   72.701691
H   28.444326   55.154175   73.395782
H   63.847054   30.638187   22.902317
H   81.082619    9.748163    3.971062
H    3.293423   30.474340   49.833889
H   34.049538   68.465752   53.345493
H   69.482178    0.056206   27.282389
H   15.710911   84.048401   75.108406
H   95.443626   78.638481   65.141998
H   25.894903   32.382584   32.333542
H   28.170692   68.181351   95.364510
H   25.165085   25.751179   29.334702
H   92.609253   20.359158   37.757641
H   71.863892   31.723387   55.649567
H   63.979607   39.304111   13.676082
H   76.125732   38.436062    5.467106
H    8.574920   26.233892    6.178412
H   48.918095   94.928406    0.888019
H   91.254066   66.639587   92.003342
H   54.818790   81.794823   91.085938
H   62.780418   16.573149   71.575836
H   59.478661   87.423569   22.179434
H    8.692307    1.964935   84.844139
H   27.188900   10.287321   85.707260
H   40.106480   33.444435   31.359947
H   23.837357   62.631908   77.065216
H   74.239731   49.289425   54.229572
H   41.921822   22.629955   83.227188
H   12.636703   24.376736   52.041546
H   35.394661   16.297604   27.915264
H    2.147217   62.604565   12.128522
H   72.996529    5.708584   88.480515
H   52.521709   65.936691   23.002026
H   92.130424   49.801590   65.995544
H   72.563248   88.597404   36.108967
H   94.079834   47.741776   81.904907
H   74.094704   23.528437   68.733383
H   53.897049   80.508270    8.417591
H   76.671768   87.350662   12.416287
H   92.009987   88.968231   98.349617
H   94.497093   16.361750   51.319706
H   10.897617   99.001450   50.397194
H   58.868996    1.458724   81.751663
H   69.109596   86.898338   61.860077
H   92.335732   60.130699   81.128510
H   49.737350   46.165627   71.519104
H   43.518906    2.807009   91.817490
H   57.103092   59.216282   19.141586
H   51.207611   44.991138   49.300713
H   50.794315   59.172165   94.965675
H   51.710381   21.785654   80.295235
H   46.459553   65.422462   53.352192
H   50.739994   64.232941   23.572117
H   47.829552   96.204109   46.343910
H   39.075409   68.542374   68.073387
H   68.687347   59.322857   96.642174
H   13.637811   90.105011   85.094627
H   71.602760   63.534725   50.355240
H   39.301838    3.485002   44.047085
H   82.261406   26.940281   98.865776
H   13.372863    4.149655   72.715302
H   18.807182   57.338638   63.123409
H   67.390961   43.853725   58.091244
H   60.682507   64.812035   82.306931
H   47.908543   34.558052   12.793196
H    6.386207    1.240728   97.746780
H   62.210983   51.598755   83.268311
H   55.242741   79.087311   79.932800
H   37.453487   22.377424   34.409100
H   70.858253   28.858446   37.177582
H   16.083164   24.028046   65.593872
H   57.699875   26.533419   11.111712
H   14.170705   60.271088   61.585716
H   72.644073   95.448128   53.610435
H   23.746651   36.892788   53.429737
H   95.852982   27.744194   36.547604
H   32.451168    9.471132   88.928162
H   76.862366    7.191713   35.965080
H   41.637428   60.581432   57.860394
H   40.204052   71.825333   86.738052
H   69.612900   71.404396   77.278625
H   65.349213   94.051086   93.071808
H    4.951926   48.368462   23.412426
H   34.071983   57.013401   92.387955
H    2.891020    9.325790   66.555283
H   72.251411   18.334238   67.602684
H   80.068954   55.860329   88.232986
H   79.026131   89.883835   38.673473
H   21.869965   30.265957   74.398537
H   59.604095   90.029831    8.662776
H   54.333569   25.462852   82.009636
H   87.217033   82.652504   77.857132
H    2.002874   37.329163   84.609840
H   35.913483    2.280637    2.167762
H   84.127510   72.773506   30.110277
H    2.824713   61.757584   68.040588
H   51.995762   57.560703   67.358109
H   54.078331   26.690228   78.365974
H   46.579006   88.489243   22.955805
H    7.010309   20.640562   60.807064
H   32.814823   68.759254   35.953331
H   80.399078   48.404053   21.387770
H   75.647964   10.704894   27.771608
H   10.332051   89.131447    7.888349
H   25.102333   94.802612   43.272243
H   10.166395   11.978443   72.158287
H    6.641425   30.554598   95.928795
