100
TIME:    7.689, STEP:  7689
H   97.346916   16.903042   92.106522
H   88.125656   21.519077   62.922733
H   11.937815   27.081009   33.082684
H   82.767181   15.863586   18.702019
H   26.298948   89.064598   57.224625
H    8.780738   92.878029   40.213539
H   49.988827   80.536057   91.742966
H   15.546059   53.797337    2.214658
H   64.617577   47.027435   16.091339
H   64.745857   26.787645    8.773899
H   85.042984   75.626251   99.106461
H   62.375771    9.100388   45.617302
H   53.447746   96.581421   60.994289
H   74.368019   81.376228   42.376865
H   73.996590   83.213455   81.137482
H   92.364609   39.221008   94.786407
H    5.803385   90.538773   73.348358
H   65.493164   20.692062   32.987335
H   65.019791    0.914482   68.446793
H   85.361893   42.528019   39.835457
H    8.000549   90.752747   48.549488
H   99.532257   54.291245   64.488907
H   83.082970   32.088081   12.358434
H    4.638590   28.811007   36.021629
H   54.581245   76.384430   93.324928
H   11.353069   99.431747   67.314262
H   99.047485   22.853777   52.531956
H   83.766075   15.336219   20.929316
H   78.360603   46.698017   93.709587
H   95.824219    0.536370   94.642448
H   18.665442   11.543537    1.049866
H   51.245388   40.071781   87.454842
H   11.959347    5.918912   90.482796
H    2.979810   69.071754   47.825455
H   89.597588   77.504845   92.856262
H   41.029026   87.664017   95.252968
H   17.274487   22.947908   14.328317
H   46.191147   18.238514   65.031425
H   20.516216   13.887014   99.191505
H   38.975624   92.364670   42.989235
H    9.763174   20.011747   23.493986
H   52.226936   71.755569   72.496086
H   77.458771    9.611895   56.857021
H   88.375244   41.701988   32.525311
H   89.691978   28.523907   14.078453
H   78.873466    9.571177   14.398676
H    1.806075   42.992561   99.270180
H   56.656918   74.564194   44.329281
H   89.788277   95.647774   37.756622
H   87.172119   47.764935   45.917801
H   42.973629   27.320494   34.479660
H   78.813782   50.257076   69.301819
H   68.365868   66.592163   56.305611
H   98.635345   81.751556   71.110794
H   28.585667   32.431839   65.748337
H    3.172399    4.445642   30.875092
H   83.700974   67.683556   87.275261
H   53.516769   50.756371   15.503682
H   96.688744   63.657047   21.201450
H   51.623207   18.789852   44.917137
H   44.728954   20.997868   14.901675
H   26.020302   56.373947   47.452087
H   96.066429   82.599274    6.212646
H   71.030632   83.648300   18.381756
H   37.512245   46.737026   11.611930
H   29.000034   60.030357    0.817559
H   70.665558   14.191711   38.287762
H   49.233986   57.279655   33.781265
H   40.121315   97.303841   77.992584
H   86.184349   34.842762   85.535355
H   77.871712   72.242569   69.917213
H   40.096920   96.294334   19.647150
H    5.653456   37.982998   64.606750
H   60.940159   62.781338   46.298920
H   32.857315   39.636837   84.286911
H    7.427794    0.365037   78.556679
H   65.108116   60.299057   27.106512
H   93.223526   47.956951   39.074734
H   30.228750   30.933704    3.465569
H   22.449245   90.162804   58.506966
H   61.339897    8.828591   39.543930
H   18.273251   94.334930   43.742290
H    4.220700   35.705357   62.205574
H   79.139732   70.123535   61.144886
H   77.939606   67.926537    2.390767
H   74.330673   91.483688   75.730652
H   80.685707   44.299538   90.184471
H   79.689293   89.792603   15.854973
H   15.252297   66.061012   65.304695
H   86.527924   92.928604   99.081314
H   38.688282   88.615501   95.839401
H   47.207035   73.765747   80.031776
H   78.333267   58.228840   13.606753
H   90.378273   79.655602   45.256207
H   23.654125   60.996826   92.772156
H   29.001495   92.102295   70.302025
H   52.285515    8.935632   94.986977
H   23.435770   66.909554   24.525023
H   42.426720   70.005165    1.002066
H   16.805323   81.320816   57.035290
