100
TIME:    8.325, STEP:  8325
H   54.336174   58.578911   91.524246
H   70.560349   55.984928    3.022434
H   22.870035   72.837891   25.617077
H   82.873932   89.659721   83.841377
H   20.599928   40.042713   39.979568
H   98.917603   92.189003    3.198294
H   16.657295   23.481485   41.479008
H   65.557709    8.820821   43.820320
H   48.983482   85.877792   76.058838
H   47.374641   35.919666   33.678139
H   25.883804    1.217218   37.843460
H   38.099739   40.979702    0.346990
H   12.892172   58.084061   97.791809
H   42.876625   79.415901   90.775826
H   81.721443   26.402786   50.550751
H   66.793015   83.593956   41.993439
H   54.660072   32.604763   31.245947
H   79.089294   89.744606   10.941319
H   74.928177   27.597095    1.956477
H   68.223587   29.023546   83.137337
H   70.259422   27.437199   31.289774
H   60.506199   55.135544   10.327591
H   74.591454   26.917921   94.161499
H   45.545616   36.419403   88.787018
H   31.833706   25.946014   98.021950
H    8.354351   80.682480    7.462294
H   44.205093   96.415787   65.152328
H   30.102674   45.022556   41.953033
H   92.189644    4.401396   63.644768
H   20.210590   84.795486   45.201904
H   43.697140   68.573723   50.731575
H   91.402977   22.501621   28.577095
H   56.759609   59.385643   47.778702
H   29.853657   10.786097   21.032076
H   73.769402   29.350670   31.552008
H   96.316071   37.479790   93.253822
H   78.274406   99.654549   64.442772
H   19.905148    6.598839    9.914191
H   93.670189    0.031269   37.557655
H   79.071075   32.824471   93.028137
H   66.296753   41.832520   38.477871
H   98.628128   74.249649    4.967209
H   82.932159   13.427011    2.797581
H   47.763958   52.379219   94.709869
H   34.523903    3.432610   68.503960
H   70.663383   21.699490   16.982523
H    6.777857   77.579720    5.377763
H   56.695736   81.114792   83.681389
H    8.380333   42.973198   12.385675
H    0.525489   57.445263    1.447877
H   42.929958   65.918480   41.185532
H    9.723438   91.240585   27.552414
H   81.554405   70.279907   19.369112
H   83.903778   71.377350   99.176468
H   77.945839   88.168045   71.153793
H    3.964536    3.776631    9.224152
H   24.021111   49.332176   47.764275
H    6.159444   90.693443   99.121117
H   46.850292   90.529121   72.376602
H    9.655524   67.676361   26.827782
H   84.847733   91.420654   65.312325
H    3.447418   50.454147   18.674252
H   39.244854   39.200348   62.600220
H   14.702213   87.112839    1.113250
H   62.758736   95.939697   70.839874
H   89.931129   28.412804   38.423328
H   19.638235   36.179325   68.993088
H    5.301012   93.652458   64.185745
H   71.820160   51.604927   38.103569
H   99.101158   66.785843   84.186417
H   57.674938   28.967770   62.289406
H   87.723831   75.177147   66.264023
H   64.185608    6.523632   48.298237
H   46.941288   22.530979    8.510756
H   63.494705   40.573330   32.508640
H   22.464388   41.127396   35.762642
H   22.870541    5.249802   38.387047
H   23.101599    6.372784   74.201904
H   60.725426   29.065571   10.563263
H   91.259941   55.517418    3.715078
H   73.790886   15.408303   77.556808
H   65.996475   98.459381   90.534630
H   44.449493   46.341587   22.773808
H   22.896454   24.547617    3.057845
H   46.972260   28.142094   40.737556
H   59.694721   14.844180   19.896652
H   23.162783   98.056831   20.511436
H   89.917931   38.899338    9.260704
H   28.452965   30.649057   60.103035
H   30.296694   66.765030   21.816191
H   64.715996   22.957340    9.270896
H   94.264595   21.598900   92.152809
H   19.101887   77.309532   62.789612
H   51.844238   18.240955   88.140785
H   12.656399    4.026074    7.386651
H   81.532440   66.986816   37.451988
H    1.803349   45.433296   58.410378
H   22.208139   98.381538   11.756208
H   12.129146   72.751564   47.731998
H   56.307858   64.997696   95.765991
