100
TIME:    0.503, STEP:   503
H   83.306801   75.893684   98.685501
H   87.278343   32.016567    9.729405
H   88.406677   10.091975   17.433823
H   81.561035   11.926172   12.591657
H   90.665726   13.075189   52.066566
H   20.216442    0.666196   28.559072
H   26.608696   95.301888   29.788027
H   80.351486   32.117817   62.011269
H   41.263298   37.932068   68.426231
H   61.094383   23.607922   27.386782
H   53.467194   86.481934   91.298012
H   36.642704   48.903404   57.124794
H   11.267026   31.275330   75.134300
H   30.176182    3.526402   95.517845
H   86.620262   25.093683   26.593191
H   81.299301   67.742134   91.286606
H   83.626106   15.261185   19.151930
H   11.893228   70.239731   82.108200
H   53.096809   99.453049   89.863144
H   79.033638   94.985809   50.503700
H   34.427811    6.141513   43.590599
H   10.578799   44.763840   76.426582
H   79.028252   90.531349   17.958454
H   72.307373   42.714451   69.718628
H   11.593801   46.282833   40.272964
H   44.352596   12.621974   42.027100
H   18.704138   21.567528    9.947584
H   90.099449   79.917526   83.400925
H   22.108521   94.728355   33.394470
H   20.280672   78.390518   23.375439
H   35.888340   67.149162   69.608665
H   97.517212   38.614014   52.698845
H    5.787882   31.679850   43.111168
H   99.354698   27.625641   50.560341
H   68.268974   20.897385   55.356567
H   16.288982   23.999014   18.913580
H   28.043587   86.114601   48.099682
H   43.199852   49.747883   57.935581
H   28.106834   69.770424   93.916199
H   15.816807   65.094994   77.609673
H    0.868191   73.438866   54.191814
H   86.414391   34.432739   26.431799
H   15.573564   66.516281   37.805389
H   47.239136   21.201174   29.912563
H   13.024311   12.046067   99.150085
H   71.527321   72.659966   85.290810
H   41.391285   52.875927   31.921331
H   56.266277    0.562191   99.700760
H   79.732475   90.791122   24.408709
H   36.439304   38.405376   48.483643
H   43.506245   21.082277   58.720432
H   29.577101   17.063969   41.041382
H   19.313211   24.925293   73.657539
H   65.040665   98.995110   54.012226
H    0.715053    2.600033    4.674347
H   94.195602   12.003315   75.503494
H   28.139862   75.033043    3.826867
H   88.604431   29.384804    0.598394
H   29.947441   60.021652   72.868713
H   25.826073   66.451157   49.303062
H   91.429977   55.177826   75.177246
H   81.058685   23.263504   72.596909
H    8.350603   72.852623   99.050148
H   77.580025   44.530678   13.483091
H   52.288132   20.670063   42.404716
H   70.445290   17.267475   75.927147
H   47.212273   65.750244   91.346603
H   45.620201   46.304611   90.248909
H   81.971977   13.643944   28.685017
H   40.575775   73.443993    0.673031
H    6.059181   61.180264   56.114719
H   32.492687   34.832024   93.448708
H   74.195129   93.426918   48.851620
H   19.119530   17.548529   73.313820
H   86.423386   29.359407   39.529102
H   37.550312   39.810257   62.082844
H   12.623748   82.948112   99.934631
H   55.612183   17.830437   42.219494
H   85.662605   52.029148   23.297085
H   74.857437   81.560448   77.587311
H   20.725147   34.485424   10.052002
H   79.064049   47.512527   44.718758
H   49.621830   15.653020   77.808167
H   84.771637   55.203953   17.486641
H   27.838053   17.420296   98.992363
H   39.716084   27.529873   76.713051
H    0.748945   66.780724   47.528118
H   64.052475   65.022606   90.511009
H   66.121529   66.165901   24.085293
H   21.864193   88.588806   42.193996
H   44.607395    0.592896   44.084179
H   15.503849   33.336037   43.107651
H   17.557293   42.702126   57.828331
H   95.844124   43.743645   60.732098
H   47.895679    4.673181   27.644485
H   35.467346   75.868340   41.468437
H   22.676527   96.546700    8.260874
H    8.712003   20.520416   47.987648
H   84.750389   39.018528    2.918563
H   70.479477   65.785011   49.240097
