100
TIME:    8.679, STEP:  8679
H   30.396324   26.115473   91.200150
H   60.783432   75.167175   25.343311
H   28.954950   98.306488   21.461887
H   82.933350   75.075371   64.438789
H   17.427832   68.417374   30.381134
H   93.429565   91.805489   38.256348
H   98.104408   47.386314   69.162270
H   37.734009   39.445415   11.316222
H   40.281487   51.842239   53.775951
H   37.705757   41.002583   47.538673
H   92.955597   15.460725    3.744640
H   24.587608   58.723995   75.148491
H   90.318542   36.658569   62.611221
H   25.348909   78.324776   17.715412
H   86.021126   94.781776   33.527573
H   52.559769   52.631920   12.607859
H   26.193581   56.018047   63.471962
H   86.656952   72.518867   98.670486
H   80.443222   42.448826   20.605633
H   58.685848   21.505854    7.239232
H   49.252556   92.195038   21.681658
H   94.444527   55.605484   80.181274
H   69.865044   24.040213   84.033478
H   12.653299   40.654266   62.497219
H   19.173679   97.871338    0.636022
H    6.684618   70.246567   74.150162
H   13.678698   81.701797   72.174423
H    0.233470   61.546085   53.655624
H   99.886940   36.518459   46.910576
H   33.783669   76.034073   73.344299
H   57.630596    0.318977   22.724220
H   13.754543   12.721777   95.805595
H   81.694229   33.484917   79.669815
H   44.810913   78.344177    6.119534
H   64.959373    2.547934   53.090931
H   27.087866   65.208847   92.141090
H   12.228372   86.690681   92.336693
H    5.274029    0.120180   34.893944
H   78.729332   92.317772    3.253151
H   45.728409   99.683891   20.879858
H   42.102936   53.978043   46.817959
H   68.795029   75.637863   23.039593
H   85.978668   15.550520   28.366459
H   25.160915   58.323692   29.321133
H    3.817250   89.468819   98.796196
H   66.093620   28.450153   18.420702
H    9.545600   96.831062    8.777178
H   56.717342   84.760880    5.584782
H   18.727119   13.655952   98.264130
H    7.956078   62.833370   76.697594
H   42.905651   31.742474   44.918045
H   26.928675   58.392925    4.313618
H   88.895195   72.332520   98.809311
H   75.704132   65.603027   14.796660
H   49.760231   19.190676   74.162491
H    4.405443    3.404258   97.173141
H   46.462105   39.117729   81.432518
H   79.799744   57.262871   90.003197
H   74.771217    5.486795   45.199226
H   86.294395   94.884277   16.759178
H    7.178216   74.956543   37.712666
H   90.883232   47.159164    2.656575
H   63.279324   15.043422   38.325378
H   39.011204   89.041214   91.503510
H   76.808563   67.667664    3.806018
H   68.184242   10.814553   59.354572
H   91.235703   48.416676   86.083786
H   80.847778   13.898522   81.108994
H   89.461823   26.168739   15.900249
H    6.290904   84.567947   83.435593
H   46.431484    4.880366   58.043739
H   58.571838   63.423241   92.213364
H   41.104523   89.012230   39.220829
H   39.149464    0.126557   87.477303
H   80.547592   41.094585   59.349247
H   30.834185   63.816864   11.943213
H   55.021317   74.611450   44.666420
H   39.731182   83.226875   93.755737
H   77.702171   28.025761   14.513866
H   73.899162   36.233665   73.217644
H   80.721153   19.070597   98.714920
H   92.561600    0.755841   60.917877
H   66.841530   52.261753   56.487965
H   47.250122   54.840187   70.724022
H   29.735718    5.997883    6.421938
H   51.546391   27.847210   44.479385
H   46.805637   72.318153   37.391472
H   95.611229   10.571663    5.590120
H   35.799809   10.939754   57.207771
H   98.998123   52.200096   34.470551
H   79.203117   42.070942   16.746727
H   20.457010   48.222916   98.899422
H   41.794056   87.929100   90.164978
H   86.057083   39.717762   12.010139
H    6.535104   72.318314   15.520802
H   10.771453   53.007446   19.167534
H   73.704216   65.748756   38.051704
H   21.524836   15.897614    4.649038
H   95.265648   74.280220   18.079853
H   78.296875   55.914593   61.665432
