100
TIME:    1.951, STEP:  1951
H   85.384430   43.104630   97.359818
H   46.999657   10.524508    1.068783
H   13.290770   14.266868    0.432726
H   81.804077   52.269310   33.221905
H   77.696121   29.138767   12.805401
H   97.762825   99.094429   71.960442
H   50.717625   93.077934   43.023598
H   66.541542   57.387333   29.059570
H    5.668694   98.712585   77.279182
H   21.524191   44.396828   84.088982
H   18.777756   44.745121   51.818790
H   81.376511   21.483980   54.054527
H   19.159622   43.669258   31.215675
H   58.479408   99.062325    5.711193
H    4.230897   95.756348   56.990967
H   23.079689   41.087593   71.091568
H   67.209976   11.019753   50.987648
H   42.836525   99.823326   31.908970
H   75.650185   60.202217   66.147079
H   39.954460   64.379501   49.165779
H   48.501526   61.990078    4.291233
H   49.422489   46.675034   53.131569
H   59.695366   78.754860   76.529510
H   37.772499   60.080906   62.177162
H   59.804802   31.442017   50.956841
H   37.713131   69.473206    6.305407
H   93.841728   61.378437   38.681774
H   67.921310   47.505795   31.261530
H   53.593506   26.101789   64.947441
H   75.803551   42.552872   38.487087
H   92.848549   97.001144   55.027752
H   88.944611   98.610298   18.650200
H    7.782930   25.737518   73.558441
H   60.535713   94.925339   89.559113
H   32.276665   11.439590   43.530098
H   42.186810   37.745243   13.932866
H   66.924438   33.087257   62.196476
H   83.352486   23.245258   60.116871
H   63.012665   38.859901   55.133675
H   79.430626   29.536894   91.534744
H    1.912941   23.127123   88.309250
H   56.276428   99.418358   94.461456
H   28.045942   75.199509   42.395950
H   54.774498   45.469772   71.491745
H   87.420631   54.912571   23.062632
H   52.916950    0.129127   91.092598
H   56.680836   30.986315   44.294380
H   56.343609   15.470739   89.294777
H   22.060431   70.866783   66.650040
H   66.807487   60.444866   47.208462
H   43.395771   81.286873   73.987885
H   99.948616   82.701126   45.983089
H   49.350990   33.321289   89.558678
H   31.512257   75.375847   17.908659
H   85.441025   29.539724   16.961561
H   96.007370   10.481541   26.210159
H   19.937212   33.251915   41.543846
H   80.781586   92.639435   63.302444
H   44.147545   21.203184   61.705139
H   30.272900   77.748642    8.119021
H   82.771042   87.841499   62.279247
H   29.666603    9.784447    7.076804
H    6.567331   74.109612   99.711838
H   77.011719   52.407448   74.172783
H    9.759845    5.020415   77.254532
H   81.492317   45.282997   61.543697
H   31.036650   15.814488   61.256725
H   45.596931   29.117485   59.471684
H   54.141151    9.599899   37.869476
H   69.908752   46.273262   97.624878
H   60.079491   62.654655   38.748264
H   13.098584   86.775070   99.464287
H   79.782578   21.802326   11.721432
H   87.253624   25.916048   87.254829
H   56.235870   31.419741   49.297222
H   71.783577   32.613075   64.650688
H   44.093300   57.448135   25.553286
H   23.641857   23.149153   22.185932
H   55.070747   47.786961   39.445351
H    3.844594    2.697821   52.840767
H   49.061634   49.465649   96.595833
H   87.708710   56.969070   23.636290
H   41.242603   39.820953   15.722849
H   84.381416   79.111183   85.227600
H   57.332108   26.847809   58.624863
H    6.386256   80.718987   77.266563
H   97.457588   61.499329   16.574659
H   87.362411   49.092728   75.460121
H   96.170357   85.543922   12.237873
H   93.843552   29.005821   93.961937
H    3.865534   78.779266   74.663284
H   22.641546   42.239300   70.695595
H   10.464161   86.090744   69.849777
H   35.799480   31.574816   58.363426
H   22.860336   74.971405   60.918419
H   55.066193   18.688475   66.677231
H    7.741431   79.644463   24.985672
H   14.028546   32.849274   24.819614
H   15.771944   45.260288   81.624496
H   60.405045   28.589577    9.776411
