100
TIME:    7.121, STEP:  7121
H   35.757645   68.991035   92.626541
H    3.812446   90.739983   27.106686
H    2.174125   86.217552   39.751934
H   82.671844   39.265961   49.837261
H   31.388639   43.536892   72.625870
H   17.589848   93.493385   83.962875
H   79.757904   42.182148   47.324627
H   60.189735    4.659610   54.367996
H   78.580101    1.638184   51.846050
H   80.259773   18.632006   86.533699
H   37.876953   52.771397   53.818169
H   84.052246   80.629654   86.048820
H   89.667107   30.959972   17.441444
H    2.492299   83.126961   99.150352
H   67.097664   33.950005    8.454655
H   15.203438   88.900208   41.936035
H   51.478676   52.968632   21.641077
H   53.346905   48.331100   52.674408
H   56.174625   77.088776   38.523357
H    0.667616   54.588139    1.163432
H   41.706482   47.299774   63.963734
H   45.077545   53.537216   12.859314
H   90.666588   36.707588   28.610968
H   57.415115   22.016085   78.206757
H   74.896675   21.428856   89.130104
H   14.031170   16.174267   20.764753
H   48.027508   46.466156   41.260532
H   31.692741   88.823921    2.153646
H   66.010139   95.165108   20.558420
H   74.044067   14.595312   49.487419
H   96.310722   60.608582   45.988152
H   15.381393   55.763371   40.037407
H   71.951546   47.475807   39.312874
H   78.980766   21.125443   71.755020
H    3.733613   20.510384   58.300247
H   91.654305   43.176346   97.038368
H   62.794640   43.749634   69.572296
H   69.666740   28.634571   24.950806
H   44.493450   26.261312   54.234375
H   92.474937   45.539402   98.299606
H   48.581390    0.523845   10.112627
H    0.094735   69.528152   43.499393
H   72.570587    6.204683   15.831808
H   24.644047   32.168297   76.988762
H   38.961807   50.932415   65.473335
H   86.205742   98.739029   12.091089
H   97.367477   12.102006   93.818642
H   56.622250   68.713974    9.184837
H   73.182320   42.688343   60.416473
H   75.246338   39.119610   85.631935
H   43.012630   82.156738   28.492039
H   51.209354    2.962347    6.587479
H   56.584698   63.298706   89.292183
H   11.787949   91.016571   46.045853
H   73.810196   82.655525   60.918056
H    2.464956    5.043122   50.211151
H   47.691586   84.072838   33.253899
H   95.811691    4.396527   30.135695
H   51.894394   39.653812   64.805626
H   89.106514   75.132431   61.072411
H    8.898426   47.411430   59.185699
H   46.179726   61.660812   73.152512
H   57.506252   21.358818   45.162109
H   32.025616   80.554184   33.804668
H   14.966701   92.101715   58.716801
H   63.893158   88.267418   67.232941
H   16.237303   94.554443   10.863730
H   88.469460   24.795290    6.627578
H   11.810745   38.116684   13.615190
H   74.653770    6.306687   86.738342
H   95.907722   10.888986   76.729469
H   86.863579   15.162900   78.014000
H   42.689056   66.076736   79.167297
H   73.445564   98.731873   80.048187
H    5.497719   38.800472   41.220631
H   94.000603   63.963642   16.776800
H   13.521453    9.459324   17.033300
H   66.537857   85.095818    7.704835
H    2.992299   32.602100   97.128181
H   50.304214   21.105019    7.440697
H   50.220184    2.952355    5.594999
H   75.650215   90.651459   91.261559
H   68.295570   26.206335    8.110701
H   40.062916   21.518574   13.024363
H    5.595976    3.460857   57.451271
H   87.400497   70.622238   36.287170
H   42.750278   85.597755   63.100121
H   70.554283   35.244144   21.744194
H    3.463230   97.686867   69.950203
H   36.746593   16.297840   78.774551
H   15.443409   57.943871   83.844284
H    5.180788   31.046192   69.206703
H   41.923237   41.185200   69.682442
H   35.483795   45.195641    6.957069
H   33.475670   11.873260   79.719666
H   82.086975   14.531615   99.639793
H   97.371208   76.339371   27.654175
H   24.532145   38.806385   35.927872
H   69.485069   67.552406   48.579502
H   81.523598   95.898697   11.751325
