100
TIME:    2.894, STEP:  2894
H   21.612801   56.626762   96.496475
H   20.768440   61.654442   60.552631
H   29.500021   82.110245   89.367348
H   81.962357   13.417185   81.533630
H   69.249756    4.724363   87.236984
H   83.143562   98.072807   65.349297
H    1.296655   56.755493   16.767509
H   92.423599   38.969448   42.476856
H   82.487892    8.047098   17.919666
H   95.756432   57.936913   21.015184
H   31.062195   82.689011   60.983883
H   45.385803   68.751968   86.931297
H   59.173820   86.616241   37.488968
H   11.787143   96.155739   77.475166
H   15.702263   11.523698   11.659745
H   85.162537   58.609283   92.813820
H   91.388802   73.385437   36.840588
H   62.988373   53.965462   99.213562
H   90.341393   99.758377   15.830248
H   14.550613   44.357021   13.369562
H   92.542664   68.111298   78.693756
H   39.830948   47.925812   72.827454
H   47.104958   71.085503   49.550064
H   50.157562   71.390686   92.139656
H   26.077530   56.651527   57.913940
H   33.389225   41.377209   17.917067
H   12.525581   22.176405   57.394718
H   88.354637   91.521858   62.434444
H   74.097885   11.658496   20.371141
H   11.962564   19.213852   13.453403
H   29.951612   81.565857   80.414879
H   48.486061   72.551750   31.351967
H   74.207733   56.743324   58.511330
H    0.378976    8.504932   49.830978
H    8.833917   40.156006    0.954074
H   24.176594   11.823210   10.691735
H   57.370560   98.550278   36.501095
H   44.376205    5.985713   26.663197
H   22.915482   18.361521   63.862106
H   90.611008   41.256760   65.729286
H   37.466930   55.481861   10.527526
H   71.524925   41.743103   38.763229
H   36.168552   80.854401   10.510646
H   94.558167   61.276131   63.692978
H    5.622927   17.709713    3.757953
H   40.751019   18.115406   94.920082
H   64.344040   82.222931   53.240288
H   56.393970   25.179743   47.642235
H   49.622635   92.768913   29.030687
H   86.578026   74.792519   81.254181
H   43.323826   90.246185   83.930710
H   45.775196   95.197357   84.076195
H   68.911079   38.789124   34.790161
H    9.676891   59.992088   59.520538
H   10.367901   12.206595   24.963076
H   97.187271    9.490496   94.108215
H   79.718361    6.041585   31.231026
H   10.563220    3.584736   39.013748
H   18.520798   61.047405   89.309349
H   68.043442   50.231205   81.298347
H   42.256783   43.986996   88.756973
H   96.200890    1.005335   64.412262
H   70.535057    9.801481   35.020218
H   41.765343   57.537140   48.570347
H   47.190792   29.704720   65.074760
H   23.562050   98.403633   17.300617
H   55.377632   48.414631    6.784085
H   80.457314   83.047791    4.552535
H    1.137400   41.841942   78.726387
H   89.017395   93.702217   95.639191
H   30.135677   98.491524   27.433807
H   35.343781   55.478912   68.507965
H   18.297415   75.156425   87.544426
H   66.504631   66.242783   31.209526
H    1.703835   32.763561   20.782917
H   94.072197   93.050774    1.200745
H   29.711061   75.714737   42.231571
H   67.945709   61.490391   74.265640
H    0.291924   45.018139   49.969894
H   57.598152   51.341366   71.600540
H   67.514206   59.221416   52.956135
H   58.465149   63.127579   44.783302
H    0.902382   55.562561    5.539123
H   49.252323   59.804901   99.095337
H   11.415254   67.864319   67.211601
H   84.685730   15.355038   42.751431
H   60.438438   92.935539   61.540405
H    2.542246   73.593811   65.646797
H   15.741283   33.038322    4.523145
H   10.469656   90.207596   27.671810
H   42.457031   29.699867   94.577713
H   92.417770   13.151709   88.667503
H   70.965637   14.350510   42.801903
H   26.943737   88.775291   21.946598
H    6.554039   90.502380   82.588310
H   32.954147   81.450691   17.970337
H   32.889847   33.761135   70.752953
H   17.490133   40.878357    9.729858
H   70.849998   49.325191    2.634208
H   18.968981    4.370141   18.951059
