100
TIME:    0.893, STEP:   893
H   56.932289   40.128609   98.328445
H   76.429802   53.163189   34.330349
H   95.107422   38.149593   12.854584
H   81.626495   95.857567   91.214714
H   87.172531   44.335411   41.491768
H   14.168812    0.241742   67.183189
H    6.169072   21.636839   60.286533
H   49.698257   65.856766   26.201561
H   31.676353    0.434977   43.876213
H   50.436272   29.206257   42.659836
H   17.190338    2.174462   53.730621
H   21.756458   68.452202   29.363859
H   86.458511    7.679638   36.372078
H   10.865620    2.323943   25.197628
H   91.363152   90.258301    7.845957
H   65.618607   33.628765   58.913559
H   52.270668   41.052505   54.660576
H   20.227135   51.274124   68.587692
H   59.169731   15.814845   10.410303
H   68.476692   86.809235   77.110298
H   11.284653   67.317230   33.006874
H   47.974537   45.278595   43.218540
H   73.821190   87.359505    6.799591
H   36.072174   47.391880   40.753075
H   97.645866   15.352886   43.151314
H   42.564342    1.001868    5.472633
H   85.074600    5.355285   17.686766
H   57.191437   98.121414   96.290634
H   30.588593   30.111624   14.959873
H   35.234188   68.738113   54.379360
H   51.229832    2.122830   38.747154
H   22.141577   27.839859   16.594566
H   33.259197    3.146575   78.245445
H   15.833528   91.884682   34.129829
H   58.574913   91.416084   79.105637
H   50.198059   54.634777   17.571646
H   65.448418   71.832375   78.830269
H   27.081764   42.609745   85.457970
H   10.573683   61.445076   56.537827
H   79.082390   28.583303    8.293062
H   74.214081   86.822502   63.383022
H   51.363426   51.937393   44.754704
H   18.932768   68.854996   65.974312
H   22.335081   27.736780   68.046028
H   79.193886   96.658676   32.524368
H   66.546394   79.991508   86.820198
H   45.509327   73.914032   35.253853
H   56.287106    4.577711   23.831678
H   91.134453   58.489998    8.851153
H   44.618855   44.341427   21.207565
H   43.476490   83.429939   62.832523
H   48.530617   80.875595   15.437515
H   27.403498   27.186646   51.006599
H   56.010471   92.633568   71.222305
H   69.669006   36.789867    7.983807
H   94.683578   11.593445   62.226974
H   52.862991   63.779839   40.919243
H   59.563904   92.554573   90.553177
H   60.704811   76.499771   42.927502
H    0.090918   96.425980   38.210533
H   16.031607   37.042374   44.769890
H   67.216827   19.633438   54.950882
H   34.804337   46.257927   72.294777
H    4.359479   46.652184    2.893415
H   67.768745   89.521629   78.724998
H   46.486855   97.879494   98.986992
H   15.921530   79.235046   10.176022
H   18.680351   68.608688    8.893165
H    1.407887   85.621048    4.224087
H   48.475632   93.058250   99.852722
H   93.674736   34.642101   51.437290
H    0.335740   21.888756   22.002481
H   48.766815   74.134010   38.851086
H   10.535790   92.868607   50.134956
H    5.227792   29.914331   69.093315
H   46.771275   64.807030   35.842228
H   48.033932   49.146843    6.835417
H   73.935089   92.329582   63.758877
H    4.355078   50.886570   27.645725
H   55.731155   60.321068   43.988373
H   28.357212   38.520153   33.360577
H    8.325199   50.059525   12.105516
H   74.298592   22.161886   14.953577
H   11.599485   88.576759   81.864388
H    8.847435   93.025772   61.186119
H   30.739109   41.856266    3.795801
H   26.796179   38.424553   66.124771
H   70.330704   33.798088   86.458427
H   74.214790   44.450966   20.894108
H   87.383591   72.539154   56.137020
H   60.567783   21.651617   52.320263
H   44.359913   62.668159   50.537384
H   42.580086   54.386772   87.999535
H   33.539688   67.401131   87.028877
H   41.153278   69.740875   36.605858
H   67.679718   60.467339   21.324547
H   91.720505   18.927641   85.831650
H   10.143945   23.841034   41.748100
H   66.171593   40.699665   70.248207
H   94.699753   55.767155   11.677120
