200
TIME:    0.956, STEP:   956
H   31.472166   60.098743   27.582733
H   34.345520   43.330940   18.964523
H    3.130911    0.477343   80.615044
H   41.977280   85.342537   25.776474
H    7.608170    1.876203   43.364143
H   66.325867   33.381630   44.356895
H   13.732787   54.796104   63.510098
H   18.933786   19.803238   99.657745
H   16.505274   76.772125   30.252468
H   85.656631   64.867912   67.830574
H   37.149883    9.889118   15.587944
H   33.738556   61.133911   46.858528
H   28.747509   10.771517   31.946342
H   70.562233   56.227779   76.767876
H   85.053726   77.456398   41.216888
H    8.430595   96.465683   38.877373
H   17.899445   41.250046   80.679916
H   19.560692   17.588184   30.773413
H   88.848022    3.780561   53.024010
H   92.334175   69.871910    9.714860
H   66.677818   12.499947   93.037598
H   74.089027   76.182228   42.982864
H   73.564323   57.335556   31.956188
H   23.773903   94.587044   89.340935
H   34.367386   41.500389   19.861553
H   18.068396   94.112350   83.308754
H   12.761680   73.163521   77.870010
H   10.942864   99.665962    2.615253
H   41.225132   34.766548   34.145782
H   60.693886   39.945629   73.858261
H   12.426697   81.362709   17.070202
H   18.905834   80.287582   11.231638
H    9.823097   24.391878   81.924850
H   72.729591   64.359077   50.805222
H   13.627708   60.215668   28.772020
H    9.662022   33.598770   87.674522
H    6.814689   58.975174   91.330177
H   97.499023   63.276417   82.975403
H   26.570953   20.762283   60.347054
H   83.216202   36.744122   35.727631
H   80.717354   71.776199   25.289848
H   48.977615   28.092447   18.599701
H   63.810055   71.333900   76.914986
H   35.686172   98.009102   44.355198
H   53.241287   98.140274   70.202232
H   30.983801   95.204872   50.474880
H   93.466888   91.132874   11.876754
H   72.684517   65.539680   21.907669
H   14.770621    1.581306   61.682552
H   36.494854   21.032660   75.421722
H   61.175705   61.433586   99.493355
H   93.768547   48.021709   78.935463
H   71.489708   73.946892   17.282875
H   11.750063   97.293381   92.306160
H   46.892136   60.461319   67.617195
H   96.127617   54.709732    2.094096
H    3.387164   19.454933   41.974110
H   75.231186   75.224075   92.379509
H   13.072847   88.308884   24.443424
H   26.543278   91.968666   53.758240
H   48.100624    1.407085   21.316601
H    2.804980   18.121035   54.555489
H   91.172928   40.038177   60.728725
H   41.474785   66.173851   19.653847
H   82.858170   86.753082   47.208729
H   10.652595   44.377678   45.733292
H   59.430031    8.058776    0.627956
H   93.331841   93.077797    1.447248
H   41.990173   15.528960   52.917274
H   41.115398   54.109402   50.944355
H   58.151062   88.975952   92.433380
H   12.017475    5.001995   39.752850
H    0.218417   38.041454   75.520203
H   31.191992   93.226646   81.417641
H   87.863419   12.461951   33.946426
H   71.411507   93.799202   58.198715
H   92.401276   56.605179   62.017292
H    0.035791   19.007910   23.483955
H   16.979166   61.586327   19.063688
H   57.485714   86.673752   60.305817
H   73.756798   18.000921   90.503571
H   58.120190   55.713032   65.722588
H    8.206252   21.520220   69.330467
H    1.325448   85.272499   17.187325
H   13.411316    6.895307   37.491196
H   44.838531   60.722626   12.878134
H   67.945198    4.276094    3.412837
H   69.377205   91.896210   38.447823
H   87.601517   73.799881   79.749268
H   19.857903   18.141314   46.988369
H   11.229147   41.073780   77.569763
H   79.068031   94.817505   13.990849
H   81.274246    8.786942   75.337769
H   27.920988   68.710045   88.764732
H   43.266869   47.240929   97.760368
H   39.620827   43.717583   95.396797
H   89.018181   89.513023   29.165581
H   98.969658   41.591312   57.813477
H   20.793846   62.605576   55.418648
H   79.653801    9.561361   27.425211
H   41.811672    0.223042    2.655398
H   17.195959   87.488998   61.915108
H   38.021408   11.002910   40.507885
H   56.280052   69.261444   18.596355
H   24.389605   18.063324   48.301052
H   15.769625   91.718033   10.368472
H   87.818428   36.959782   50.486248
H   60.531788   61.765144   91.055672
H   90.992638   31.051704   33.754841
H   27.367205   18.077402    9.041552
H   56.614876   89.844826    1.299609
H   14.742840   81.350281   98.666893
H   44.658325   88.583344   78.361366
H   60.798759    3.961363   56.491348
H   39.956642   11.783401    1.667313
H   84.818489   84.852791   11.235321
H    3.136445   18.524878   92.527023
H   37.138454   62.238743   19.666374
H   46.053322   84.595291   48.153858
H   89.677925   60.965145   76.053604
H   48.027473   26.517399   64.057762
H   87.396301   10.518513   69.248718
H   49.498360   91.624710   45.270138
H   93.528625   41.553902   86.510124
H   55.491875   91.224998   69.132561
H   73.952820   81.942963   11.707298
H   77.589333   52.533066   43.402847
H   59.767265   93.185570   41.049725
H    1.279013   26.566143   68.573341
H    2.449376   20.755676   78.699699
H   77.511818   59.620514   30.773739
H   54.217430   93.152817   26.212025
H   90.099739   17.429346    2.702123
H   65.812134   31.360363   58.518932
H   39.796909   88.423676   23.515366
H   43.287979    0.707931   73.133232
H   70.078110   88.389046   90.982430
H   97.325584   41.865070   71.885231
H   65.028259   54.346664   71.380745
H   43.835793   74.751183   75.562531
H   86.064774   42.012894   38.038757
H   24.277008   62.765816   62.938007
H   31.988638   69.938393   75.233887
H   24.904427    0.609633   89.989296
H   73.957306   46.020950   72.481445
H   72.175346   74.310837   95.553978
H   61.665459   93.642235   42.155201
H   23.101631   46.766441   64.717064
H   84.326385   34.898018   90.826630
H   32.286072   96.491844   63.202652
H   50.984207   73.469803   45.938908
H   63.927521   87.297264   25.714508
H    9.437937    5.066158   78.330612
H   28.836815   17.577593   58.258121
H   42.004642   72.789261   73.705833
H   84.757256   45.304264   76.090576
H   66.806015   82.356857   89.233810
H   56.225708   25.171951   26.498554
H   79.611565   99.036240   76.051186
H   55.652317   27.729383    5.717741
H   60.989105   55.320793   64.378563
H    9.986086   19.345798   29.341141
H   96.039604    3.352449   36.934338
H   37.556427   41.213581   40.566360
H   52.098564   46.383484   16.859667
H   24.249718   41.657330   58.387836
H   62.570641   85.986153   59.812046
H   24.257687   63.509056   77.620255
H    3.802727   25.841757   35.166245
H   59.147774    5.056474   82.340485
H   65.686523   14.148719   35.915985
H   21.427492   38.852364   59.656830
H   51.507095   46.687077   70.277786
H   62.408730   57.413307   90.851181
H   38.159424   89.650375   65.565132
H   23.008293   51.534874   23.990372
H   28.062290   75.289337   16.858139
H    8.075825    9.883690   74.035599
H   57.289776    4.734418   60.761662
H   52.241875   62.135582   96.485435
H   68.345703   10.848123   25.072453
H   33.669380   30.980068   95.754929
H   32.666805   89.410645   20.252609
H   67.073219   26.545177    3.531080
H   94.782150   57.279236   75.447006
H   14.249462   42.265457   87.537697
H   56.283508   92.260597   15.130018
H   56.022766   97.553169   50.580620
H   85.882607   64.366005   74.726456
H   62.633789   54.378445   74.749161
H   82.023193    7.335589   74.188423
H   41.783302    4.387333   15.504537
H   20.004539   34.558128   74.209511
H   22.595133   92.106232   47.742863
H   60.323212   22.274689   19.474174
H   77.076187   12.140369   19.756824
H   14.220611    5.083408   27.633528
H    8.100645   83.175987   26.774040
H    2.365316   13.615320   45.995033
H    0.539881   10.734810   87.801315
