200
TIME:    0.459, STEP:   459
H   16.200655   61.748180   19.084341
H   29.916241   36.075314   98.787704
H   13.547596   78.723747   56.135124
H   25.224684   79.533485   38.772900
H   12.884964   89.279770   50.509808
H   82.494141   46.870991   59.067219
H    6.532142   55.148743   53.890278
H    7.796294   98.343323   17.298759
H   96.322342   84.223030   42.376915
H    3.152018   71.831230   87.434227
H   19.827002   99.272530   99.882278
H   31.683395   47.868267   23.177139
H   16.549259   94.276024   52.315941
H   94.052490   54.130909   52.818813
H    9.048531   73.630463   42.439747
H   22.916954   16.943008   49.598713
H   94.509796   17.975351    4.799257
H   31.361750   93.694984   39.621468
H   72.311943   21.773375   45.707714
H   90.752991   76.697166   28.981197
H   60.713303   87.690544   15.807099
H   85.153526   57.185265   62.135292
H   88.447174   60.949150   43.881424
H   13.246894   90.055832   90.899368
H   12.765379   21.511866   37.595844
H   18.479807   72.055397   99.723495
H    3.136755   63.191059   57.887177
H   99.536163   79.163651    1.307522
H   20.292450   49.873116   37.055996
H   83.153053   26.631073   91.050323
H   13.075570   60.598759   16.462564
H   27.943611   68.639145   98.994919
H   21.831757   13.697927   75.854164
H   89.178459   63.816849   42.118187
H   37.478870   80.751755   32.553265
H   25.907566   44.928654   81.987747
H   92.550156   69.702202   87.599037
H   22.082415   50.420288    5.320780
H   44.965019   38.558540   49.299618
H   87.982506   38.787907   55.141693
H   80.569473   94.993446    8.793375
H   24.239855   38.514591   33.337429
H   72.758682   82.751038   58.460247
H   36.793381   73.870445   26.580803
H   36.259670   82.976830   52.266975
H   37.977932    8.139062   45.069656
H   84.101120   15.482888    0.980843
H   84.784180   65.547264   39.774673
H   95.549843   20.441418   61.324226
H   54.280334   18.789804   96.447304
H   72.998566   67.724197   19.189568
H   12.766467   39.467388   68.250145
H   58.082706   88.156021   10.792468
H   19.147207   86.805237   84.946259
H   67.929092   71.514442   83.690674
H    2.498230   66.954926   85.819458
H    4.805486   17.574196   47.305393
H   69.801315   63.670437    1.350757
H   23.560043   78.708023   12.423248
H   38.038147   94.759438   62.945793
H   49.710247   11.103657   35.838032
H   93.872032   16.943678   50.744720
H   77.480705   29.743210   77.496475
H   29.432199   65.464783    8.557117
H   74.868828   79.343887   26.884872
H   30.148998   25.069447   36.799789
H   77.994728   18.542540   90.359749
H   96.115028   91.947838   91.607376
H   24.312347    8.812718   59.207886
H   43.976318   45.447014   50.970898
H   58.369091   80.379921   79.139297
H   25.985552   18.065380   43.231834
H   84.444473   29.449215   92.162453
H   15.000048    4.150926   66.948097
H   81.811691    4.416680   57.315346
H   58.849243   11.344929   61.446400
H   94.501938   38.103046   69.047844
H   18.443743    9.957809   40.478844
H   13.195549   39.450378   30.088017
H   64.976189   89.445564   83.875702
H   52.662968   26.400726   97.882431
H   36.266098   64.652084   81.086998
H   10.145288   16.068546   83.872055
H   17.532490   69.020805    0.989310
H   31.109585    1.639675   51.575871
H   30.837198   78.111862   23.223942
H   45.670551    3.240457    2.273398
H   73.510277   10.393437   19.702391
H   72.388779   72.590294   77.959534
H   22.347225   95.863327   52.456158
H   32.062405   36.783348   79.780388
H   82.529953   90.456924    3.146381
H   57.663162   14.392183   89.492592
H   50.207520   86.565674   75.118011
H   30.674170   53.963806   77.060883
H   60.202766   32.605686   18.764729
H   82.276344    6.704413    7.760998
H    0.874249   31.841787   50.667080
H   32.055519   67.584221   53.657352
H   71.012268    1.486043   27.303873
H   19.637175   86.481506   79.252205
H   98.715965   79.969841   64.656586
H   27.719061   29.166492   33.563187
H   32.399239   68.343826   98.859077
H   25.048431   24.594715   32.187759
H   96.093079   16.050701   33.637676
H   76.032532   32.816071   55.240021
H   63.460960   42.682865   10.273242
H   78.362122   37.325253    9.722355
H   11.401793   25.006933    6.609107
H   50.075901   94.163696    0.949933
H   94.787575   68.852478   93.005722
H   53.290379   82.816002   89.171814
H   62.482323   14.675978   69.306549
H   56.542015   91.087997   19.093908
H    5.100975   99.390587   88.814049
H   23.570797   11.526449   86.733139
H   39.660007   37.775887   29.600914
H   27.179352   65.935799   72.715973
H   76.562057   51.045773   57.512318
H   42.840279   23.214733   80.343582
H    8.839676   22.292080   54.630077
H   37.516243   12.586101   30.525784
H    0.850673   59.437969    8.274846
H   70.363350    3.529729   85.570053
H   55.745708   68.344284   21.302914
H   89.943047   50.212479   62.596985
H   70.638382   89.287590   36.852192
H   95.162781   44.556381   79.899475
H   78.360023   23.111338   70.232590
H   57.449356   77.366180   11.780567
H   73.294022   88.223465   14.491544
H   91.722633   93.249664   99.004219
H   90.182091   18.617989   52.402744
H   15.244930   97.410263   46.353432
H   56.525185    1.345784   80.455215
H   69.255287   87.122581   66.240875
H   93.086342   57.383049   79.738068
H   52.037521   47.396278   71.498291
H   43.566574   98.586494   89.372299
H   61.459721   56.628422   21.984238
H   47.156464   47.664936   51.352135
H   47.965427   60.791885   91.997475
H   47.678032   18.600260   81.753487
H   50.595966   62.503944   56.229755
H   53.964329   65.748932   19.357487
H   49.910851   95.818733   45.713814
H   36.672516   65.266678   67.568504
H   71.039886   55.648693   95.767357
H   16.442961   91.065765   81.801476
H   68.500954   65.029236   49.690903
H   43.006214    1.050071   41.289364
H   86.349480   23.649815   95.776726
H   15.699134    6.169564   70.540680
H   22.296715   59.662643   64.715454
H   70.003326   44.071926   60.798611
H   61.603649   67.451256   83.348923
H   49.159672   33.146126   14.854856
H    2.358600    0.909149   94.483170
H   61.224380   48.008179   86.645386
H   56.107151   75.512177   77.593018
H   33.321774   21.921385   33.646740
H   74.646217   25.021639   37.140991
H   19.313374   26.613220   61.828930
H   56.857285   29.519411   11.976375
H   15.686864   57.471069   61.104668
H   71.128754   94.024788   54.543327
H   23.823524   40.896603   57.068653
H   97.048721   27.458015   36.339809
H   36.467068    8.807047   87.937195
H   75.181213    8.238236   35.957695
H   38.597389   57.312786   58.130627
H   41.904339   68.044083   84.261978
H   68.529205   69.299576   79.320290
H   61.259125   93.389099   88.934052
H    7.668860   48.843803   23.496853
H   33.167961   59.762394   96.069168
H    3.670941    9.409714   67.680527
H   70.000923   16.288523   66.573448
H   75.882858   56.804298   89.474380
H   77.419502   93.037338   36.627422
H   23.644943   30.373379   77.611122
H   55.552269   89.937706   10.405281
H   56.250042   25.625664   85.247063
H   88.355034   78.835670   77.494583
H    3.845117   38.071716   85.050270
H   38.977692    0.773268    4.117657
H   79.899788   76.501045   33.189487
H    0.276295   62.150009   69.046326
H   53.596012   57.082005   68.469925
H   58.282219   23.778759   77.737556
H   45.857601   90.880722   21.834925
H    8.964989   22.734114   62.822903
H   31.277428   72.271278   37.726799
H   77.379181   44.473419   21.099913
H   75.862808   10.920829   26.565966
H   10.916997   91.530983   10.858563
H   22.544853   93.053650   40.790462
H    8.992895   12.224674   68.222618
H    5.723597   27.573137   94.706200
