100
TIME:    2.796, STEP:  2796
H   28.239868   65.613884   96.586197
H   23.494484   56.340675   54.370808
H   27.815496   75.059616   90.517281
H   81.945908   17.455034   86.904968
H   70.127533   96.869247   89.894241
H   84.662849   98.178978   55.643757
H    6.432751   50.137772    9.103782
H    0.126207   30.491495   51.475193
H   84.896919   17.469528   24.088406
H   98.434624   56.529778   17.177340
H   40.177917   78.745743   70.423859
H   49.126450   63.839706   93.907158
H   65.407402   92.545349   47.229004
H   16.639427   96.457802   70.017799
H   14.510086   20.277266   16.370680
H   89.102814   67.180695    0.948619
H   99.269356   66.903046   27.919260
H   60.894119   58.731178    2.611313
H   88.814629   95.647629   10.667513
H   17.190674   46.437817    6.697278
H   98.358124   77.867035   81.354004
H   30.435593   47.795715   81.173065
H   48.413399   71.882530   52.353867
H   59.262817   70.215332   99.417580
H   29.582283   64.423706   57.190933
H   33.838581   44.296902   27.102697
H   20.976242   26.250143   55.450001
H   96.623985   86.947548   59.194744
H   71.966995    2.767272   25.003397
H    8.204907   21.639328    5.662917
H   26.094702   72.777618   88.168327
H   42.298256   75.259850   40.424324
H   67.305145   63.913582   49.682716
H   96.238304   17.485916   53.959671
H   11.270047   47.564026   94.986198
H   15.655652    4.124669   11.028565
H   47.971466    2.139347   28.779051
H   48.426392    7.779305   19.747898
H   27.052399   20.496523   73.359146
H   99.841873   50.431549   58.018620
H   44.164593   52.119541    8.218816
H   80.332603   37.344498   34.159012
H   35.324421   80.266724    3.432106
H    0.816216   59.633476   54.111450
H   14.123682   21.575970   95.371803
H   42.015347   16.246204   94.522316
H   63.578007   76.893463   52.298958
H   56.388737   24.170748   41.578545
H   46.758270    0.885659   32.940025
H   84.523399   73.301643   88.108917
H   43.331303   99.707336   82.897415
H   41.012470    4.290871   90.509239
H   66.878883   38.220886   40.482254
H   11.946102   61.591377   55.195953
H   18.170319    3.616982   24.130445
H   97.064651    9.593489   97.444366
H   73.505135    8.869500   21.910439
H   17.860443   12.839759   41.537918
H   10.792023   56.906750   96.832512
H   74.510880   42.698322   84.085701
H   36.074959   48.544109   96.398270
H   99.679100    1.917692   68.846008
H   63.885006   16.486902   41.741867
H   35.035469   57.004044   51.231342
H   43.300610   37.532078   55.947914
H   29.582375    3.275482   11.506321
H   63.240242   45.026890    2.052462
H   87.226814   77.443176   99.867569
H   96.253410   48.883598   84.872322
H   87.031555   88.773506   95.845551
H   33.247749    5.159513   28.609535
H   43.423965   58.731323   61.332947
H   24.687468   80.004387   90.056633
H   68.660942   72.444046   37.033958
H   96.978661   32.623745   13.353588
H   91.755882   86.770256    7.794804
H   20.813288   84.208389   40.498447
H   63.341488   67.898308   68.853928
H   95.592041   45.305996   48.876038
H   62.404243   56.679058   80.043350
H   65.597153   58.207561   47.098804
H   51.111710   62.487564   52.977882
H   94.702530   53.926636   96.205170
H   42.510487   51.418915    8.046051
H   16.187145   73.993805   76.711632
H   86.940735   11.755329   35.946041
H   53.893242    0.060933   56.867401
H    0.965014   81.439972   66.666634
H   13.707405   38.494896    5.324939
H   19.134274   94.239090   24.168552
H   38.446472   24.408157   92.508133
H   85.166763    5.782007   86.799797
H   64.680786   11.411798   35.221901
H   17.471371   82.831230   15.338971
H    8.248577   99.280151   80.336296
H   24.859756   85.320686   23.032135
H   40.668716   28.137081   76.388969
H   17.130499   40.043945   11.297932
H   75.518517   48.902752   10.843056
H   12.882339    6.885660   28.391123
