100
TIME:    1.248, STEP:  1248
H   32.924721    7.573390   98.003433
H   66.554848   72.410851   56.723690
H    1.207201   63.690136    8.686302
H   81.686081   81.232018   71.757317
H   83.992828   72.790230   31.865990
H    8.663918   99.856041    2.338804
H   87.562691   45.609196   88.047997
H   21.795959   96.570419   93.606407
H   22.949776   66.303268   21.529551
H   40.734657   34.302788   56.562233
H   84.169113   16.458210   19.536135
H    8.206158   86.246620    4.095462
H   63.875595   86.201530    1.088341
H   93.288292    1.229456   52.214268
H   95.680397   58.548412   90.781906
H   51.345154    2.576565   29.445786
H   23.729572   64.529221   86.983040
H   27.813461   34.010559   56.280563
H   64.697990   30.708529   29.112047
H   58.892853   79.311386    1.302316
H   90.218552   31.975113   23.371758
H   82.014153   45.747154   12.989764
H   69.081429   84.472313   96.642502
H    3.088801   51.649540   14.386501
H   84.948723   87.197456   45.770370
H   40.936573   90.422897   72.197098
H   54.463020   90.599075   24.731405
H   27.238853   14.692065    8.024322
H   38.307632   62.320255   98.179466
H   48.846783   59.951950   82.601250
H   65.194527   33.958984   10.656296
H   44.556583   18.032616   83.730476
H   58.266178   77.172813   10.226651
H   30.832848   59.350960   19.175013
H   49.750832   64.580910    0.724284
H   81.063385   82.520828   16.350142
H   99.498863   58.831886    6.802840
H   12.410006   36.112209   10.510040
H   94.614365   53.866875   22.511757
H   45.645538   95.349312   36.224003
H   49.953491   99.005043   71.746872
H   19.458061   67.870461   61.433247
H   21.990591   70.983826   91.617775
H   99.666695   33.686241    2.757225
H   48.400352   82.650650   62.904884
H   61.986568   86.720467   88.239235
H   49.257801   93.062668   38.287300
H   56.306065    8.232744   45.797085
H    1.512823   29.089935   94.690231
H   52.064342   49.744755   96.378868
H   43.449406   49.157402   66.575577
H   65.783348   47.934284   92.132431
H   34.767731   29.245056   30.387390
H   47.790371   86.842934   86.887894
H   41.407028   67.912155   10.996264
H   95.127762   11.220358   50.141937
H   75.368744   53.536537   74.682594
H   33.129578   59.029564   81.409500
H   88.704292   91.499084   15.673332
H   76.662964   23.713102   28.113487
H   38.425915   20.534462   17.092392
H   54.617188   16.329147   38.887154
H   58.885033   22.049377   47.940529
H   28.736799   48.583298   93.255989
H   81.858025   61.169460   11.784638
H   24.678535   80.231331   19.976851
H   87.438889   91.509674   27.316353
H   94.157738   88.911118   25.864218
H   19.101639   60.113007   81.960335
H   55.666527   10.913349   99.105194
H   82.402229   10.486776   47.179630
H   71.063004   10.106724   47.994812
H   25.620155   56.573666   29.748035
H    2.722605   70.404846   29.036247
H   22.343376   30.419455   96.004326
H   55.164715   87.557884   11.955518
H   80.265648   18.378420   13.116955
H   90.613632   69.118294   83.362564
H   21.372103   49.846531   31.604103
H   38.321335   40.985550   13.404782
H   35.304348   42.192791   54.578457
H   34.961452   52.377945   82.420242
H   96.762352   28.086588   48.765659
H   36.021320   18.954569   49.439003
H   91.561737   70.822021   26.772743
H   22.567760   54.897381   28.448311
H   50.505821   12.613167   83.052490
H   76.045502    5.376787   82.769539
H   81.581734   24.685308   17.989311
H   55.998245   57.930984   68.828743
H   75.095833   40.819942   59.817211
H   70.626320   89.367912   57.300346
H   65.358025   65.023056   15.463448
H   67.852547   88.933189   10.965302
H   35.015965   37.941628   44.763664
H   97.001236   46.448479    2.987970
H   63.541946   39.300488   65.415466
H   11.447379   26.863647   36.068512
H   49.260124   42.229931   40.511730
H   16.746445   46.647854   77.485542
