100
TIME:    7.179, STEP:  7179
H   31.835291   63.672127   92.573441
H    2.210772   93.882652   30.763767
H    3.171144   90.390373   39.070919
H   82.681580   36.876434   46.657864
H   30.868917   48.185848   71.053207
H   16.690235   93.430550   89.706589
H   76.717896   46.098759   51.860302
H   55.631050    9.677247   49.042450
H   77.154350   96.061707   48.194942
H   78.675606   19.464800   88.804634
H   32.481934   55.105167   48.231544
H   81.838837   83.536911   81.920250
H   85.968651   27.449581   11.677597
H   99.620552   82.948189    3.564231
H   67.802132   28.769157    5.665500
H   12.871216   83.827332   37.121582
H   46.814674   56.804707   26.921045
H   54.587246   45.508804   50.664108
H   57.077778   79.521667   41.578854
H   99.104874   53.356647    5.112293
H   38.264679   41.525528   62.389744
H   50.638062   53.614212    7.920075
H   89.892204   36.235878   26.951353
H   52.025848   22.709932   73.899414
H   72.822212   16.829018   89.558449
H   13.757702   14.464649   15.306663
H   43.025875   44.054947   42.411488
H   26.798859   91.531166    4.070909
H   67.271278    0.427367   17.816881
H   76.268097   13.159716   54.098320
H   98.593163   65.809494   41.399376
H   19.043545   54.161060   34.668053
H   76.036751   43.232185   44.537971
H   81.431358   15.810079   69.311508
H    2.290107   16.118965   61.829224
H   96.696205   47.719101   96.856056
H   68.357712   41.625610   74.142487
H   67.269249   27.573002   29.043533
H   42.045071   24.997740   48.613678
H   87.011772   40.109425    2.862854
H   44.617432    2.513827   11.478971
H   95.206825   69.755600   46.460194
H   73.069733    6.552603   20.021008
H   20.940723   33.141808   82.659904
H   33.930969   48.644222   70.436470
H   85.457024   99.845291   12.326723
H   97.820602   15.256402   94.375313
H   56.625790   69.311356   12.773441
H   74.877998   37.884953   58.102615
H   76.464111   40.002407   81.576820
H   43.008648   76.557281   29.103359
H   54.028164   97.580444    2.780018
H   57.787868   63.635010   85.923836
H   10.444946   90.070496   48.605301
H   69.192215   87.738136   61.411449
H    2.537195    4.982112   48.236694
H   51.368359   82.399284   38.770164
H   91.492844   98.919060   28.641577
H   56.468567   42.104847   60.353142
H   85.278847   79.590225   59.422752
H   12.557167   44.714363   54.663742
H   44.121193   61.120956   70.528458
H   61.444103   17.400833   41.184875
H   36.008602   80.870132   32.229794
H   17.268833   87.469574   64.118019
H   60.330109   85.384056   70.662354
H   11.583700   96.559875   13.664123
H   84.463020   28.112528    9.400313
H   14.701519   33.949173    9.977468
H   75.829063    9.223979   86.616211
H   94.066017    6.942616   76.033852
H   82.090721   13.232804   82.264702
H   38.907410   63.208294   77.680481
H   72.168495   95.060852   76.601959
H    8.291474   38.885876   45.618244
H   95.371483   67.680687   12.874217
H   18.789200    4.439146   18.061903
H   69.262802   81.303551   10.908023
H    5.773508   32.431736   97.775124
H   47.459793   17.945312    2.443996
H   51.355614    3.552407    9.061683
H   80.002693   91.027588   86.409050
H   71.963936   27.176306   13.634378
H   44.052982   26.481930    7.727029
H    2.771910   99.832664   51.828804
H   86.065903   72.752457   40.314850
H   46.623966   81.380684   65.865776
H   71.487083   30.602777   21.142830
H    4.667009   94.457466   69.475838
H   31.618422   13.911411   80.848129
H   17.817005   61.075478   85.069138
H    9.472200   35.408356   70.312080
H   45.641163   42.925571   74.167671
H   41.089005   48.714439   10.867831
H   32.472954    6.677825   81.052490
H   86.877533   12.241321   96.644035
H   92.767387   79.667892   24.318352
H   24.420191   41.676029   34.763641
H   66.722069   67.802864   43.721241
H   85.126472   94.410110    6.163908
