100
TIME:    3.061, STEP:  3061
H   10.319576   41.311974   96.343582
H   16.123039   70.708588   71.086960
H   32.370590   94.125092   87.407768
H   81.990387    6.536360   72.380432
H   67.753952   18.110149   82.708801
H   80.554573   97.891884   81.887230
H   92.543648   68.032173   29.827126
H   79.297729   53.416569   27.142956
H   78.382713   91.990631    7.407370
H   91.192574   60.334785   27.555185
H   15.528259   89.408661   44.898258
H   39.011436   77.122864   75.043861
H   48.551575   76.512558   20.890724
H    3.518495   95.640999   90.183128
H   17.733829   96.606766    3.631987
H   78.447983   44.002899   78.951515
H   77.959694   84.431961   52.043255
H   66.556236   45.844292   93.424011
H   92.943123    6.764511   24.627970
H   10.051735   40.811176   24.739710
H   82.632645   51.485764   74.160477
H   55.841400   48.147507   58.605850
H   44.875267   69.727303   44.772156
H   34.641464   73.393585   79.737480
H   20.105145   43.407166   59.146004
H   32.623486   36.401814    2.264233
H   98.125031   15.234387   60.708675
H   74.262993   99.316856   67.954247
H   77.729095   26.809652   12.477400
H   18.365799   15.080571   26.728981
H   36.524540   96.541733   67.202370
H   59.030586   67.936928   15.891930
H   85.970306   44.524620   73.556007
H    7.435319   93.200447   42.795349
H    4.682424   27.532135   11.122742
H   38.696682   24.942072   10.117749
H   73.388130   92.434555   49.660091
H   37.474358    2.929285   38.447430
H   15.865844   14.723303   47.678375
H   74.880859   25.622431   78.867897
H   26.053797   61.211529   14.461656
H   56.515923   49.238686   46.609192
H   37.607021   81.855850   22.573174
H   83.893875   64.075317   80.021935
H   91.136559   11.121059   18.048994
H   38.596500   21.300678   95.597908
H   65.648727   91.304779   54.844391
H   56.402889   26.899153   57.975258
H   54.503746   78.937187   22.369009
H   90.079277   77.333092   69.573151
H   43.311085   74.123611   85.691528
H   53.891270   79.701645   73.113762
H   72.374107   39.757446   25.090824
H    5.809971   57.266769   66.889984
H   97.071457   26.842285   26.383070
H   97.396225    9.314987   88.423141
H   90.306206    1.222633   47.114067
H   98.128166   87.813705   34.712357
H   31.691261   68.103424   76.489265
H   57.023209   63.067852   76.548470
H   52.791115   36.221302   75.735580
H   90.273735   99.450729   56.855591
H   81.872078   98.405571   23.568527
H   53.233597   58.445580   44.035793
H   53.819981   16.366711   80.626534
H   13.303009   90.101540   27.174324
H   41.979103   54.187618   14.847259
H   68.921532   92.598511   12.536101
H    9.460943   29.842384   68.253212
H   92.401428    2.101348   95.287537
H   24.832199   87.129021   25.430271
H   21.574003   49.936539   80.734314
H    7.408252   66.895103   83.263420
H   62.829693   55.674316   21.284218
H    9.755372   33.001820   33.443027
H   98.019386    3.753563   89.963196
H   44.874134   61.240616   45.184956
H   75.791672   50.570004   83.487640
H    8.299901   44.527607   51.833916
H   49.408180   42.245502   57.213303
H   70.781021   60.949108   62.937504
H   70.995300   64.218216   30.819014
H   11.468267   58.350311   21.444889
H   60.740963   74.095306   83.841705
H    3.283487   57.418369   51.022774
H   80.843018   21.489235   54.348370
H   71.591988   80.793282   69.503586
H    5.229979   60.223312   63.908981
H   19.207474   23.740442    3.156822
H   95.704620   83.337601   33.641472
H   49.291351   38.716900   98.104446
H    4.774443   25.710527   91.850227
H   81.670700   19.361685   55.716270
H   43.085423   98.904457   33.206467
H    3.666430   75.544342   86.425926
H   46.747650   74.855904    9.344374
H   19.634613   43.344982   61.148720
H   18.102980   42.300262    7.057734
H   62.894463   50.045063   88.645668
H   29.341501    0.085154    2.863263
