100
TIME:    0.971, STEP:   971
H   51.657387   32.975594   98.257034
H   74.260094   57.392513   39.250576
H   96.447571   43.761318   11.938736
H   81.639587   92.644066   86.939568
H   86.473892   50.587456   39.376808
H   12.959286    0.156853   74.907494
H    2.081157   26.904005   66.386238
H   43.567612   72.605118   19.039619
H   29.758965   92.935608   38.966103
H   48.304649   30.325924   45.714447
H    9.934967    5.312885   46.217575
H   18.779209   72.361961   23.811941
H   81.496628    2.960412   28.619673
H    7.003616    2.083451   31.133678
H   92.311729   83.290955    4.096426
H   62.482468   26.806026   52.438950
H   45.999580   46.210770   61.762413
H   21.893990   47.481003   65.883591
H   60.384315   19.087259   14.519419
H   66.365303   85.173920   82.431618
H    6.656043   59.552116   30.889973
H   55.453663   45.381546   36.576710
H   72.779778   86.725136    4.567844
H   28.825134   48.327366   34.959846
H   94.856071    9.166897   43.726768
H   42.206692   98.677612   98.161621
H   78.348862    2.112826   19.234602
H   50.610306    1.762235   98.868576
H   32.284607   37.188389   11.272976
H   38.225124   66.807632   60.580227
H   54.298130    9.117785   32.574852
H   27.066565   25.685028    9.373711
H   38.753689   97.439766   85.272301
H   19.129158   84.736427   30.843832
H   56.636101   85.519905   83.855667
H   56.979736   60.761852   17.303259
H   72.929924   68.975929   84.976387
H   23.858147   41.182117   90.962578
H    7.066970   59.780006   49.061676
H   71.735374   21.281218   14.429956
H   68.883240   89.499229   65.220871
H   44.353233   55.438324   48.419285
H   19.604628   69.322739   71.608650
H   17.354452   29.043901   75.672737
H   72.427681   93.580856   39.199524
H   65.550209   81.457817   87.126076
H   46.332935   78.121338   35.920357
H   56.291271    5.380788   28.657881
H   93.414848   52.030266    5.739562
H   46.254765   45.528637   15.752350
H   43.470539   75.899635   63.654942
H   52.321358   73.638077   10.316742
H   29.021555   27.638916   46.476158
H   54.204365   91.361259   74.664322
H   63.459755   43.628078    8.645699
H   94.781174   11.511471   59.571671
H   57.807617   61.529198   48.337669
H   53.755798   85.188515   88.544144
H   66.856560   79.795395   36.939083
H   94.943375    2.421179   35.992027
H   20.952131   33.415283   38.688637
H   64.448456   18.907425   51.421387
H   40.095306   40.938988   66.943703
H    9.715662   47.076485    0.775481
H   70.864418   83.292198   85.988701
H   41.695168   94.001869    3.598848
H    9.663237   81.932007   13.942066
H   13.292306   73.069504   12.622016
H    5.295532   80.016464   99.332008
H   50.055603   96.981102   99.688477
H   91.197960   29.334620   50.501804
H   93.904007   19.300102   27.713289
H   43.681152   70.275429   36.850979
H    8.819097   87.932907   45.499184
H    8.988387   30.025316   75.006157
H   48.615467   69.805809   30.594025
H   55.116131   42.386589    8.215586
H   77.599670   87.229637   68.066193
H    8.093973   50.658054   28.515453
H   51.905899   56.072701   37.268585
H   29.883625   39.327099   38.022533
H   14.177639   50.568924    5.582853
H   79.234291   23.463652   22.382694
H   16.965315   95.251320   74.739937
H    5.049346   88.147202   53.624870
H   28.943714   44.721638    9.212482
H   32.005623   32.753319   69.844101
H   71.586349   27.553398   85.647911
H   75.833443   40.107979   20.255871
H   80.487656   69.329224   58.925625
H   63.759861   25.863386   53.967480
H   50.131123   68.534584   52.023331
H   47.584816   56.723701   94.033775
H   41.078918   72.132118   92.288307
H   39.804798   62.754379   38.398277
H   74.122192   57.387138   17.295769
H   85.529160   23.403929   81.345840
H   10.430333   24.505157   40.500191
H   62.455833   41.035892   63.714115
H   99.543808   53.763477    4.164482
