200
TIME:    0.048, STEP:    48
H    3.571382   63.112202   12.056496
H   26.252981   30.074936   82.102745
H   22.161983   60.734344   35.891167
H   11.370591   74.729622   49.520447
H   17.248768   78.863037   56.418999
H   95.864685   58.026176   71.233025
H    0.577538   55.440361   45.935055
H   98.586128   80.595367   31.887516
H   79.631111   90.384644   52.403255
H   17.619991   77.588341    3.645470
H    5.501355   90.492622   86.894287
H   29.983856   36.898087    3.593820
H    6.461772   80.635811   69.160820
H   13.479122   52.396877   33.013851
H   28.891768   70.466560   43.451004
H   34.896824   33.877254   58.464851
H   75.175186   98.726196   24.753948
H   41.121506   73.937057   46.938580
H   58.637241   36.652721   39.657417
H   89.445412   82.341393   44.913593
H   55.780876   67.173782   34.636860
H   94.303444   41.475502   77.973618
H    0.754778   63.937454   53.743141
H    4.572656   86.359871   92.198036
H   94.901207    4.981862   52.261425
H   18.820028   53.816013   13.297857
H   95.177986   54.944218   41.362137
H   90.104034   62.208855    0.226072
H    2.981980   62.365669   39.462631
H    1.725797   15.620913    5.267290
H   13.612164   43.427769   15.960072
H   35.417507   59.006332   88.876076
H   31.762459    4.854130   70.833939
H    2.781364   63.368446   34.934341
H   57.202305   97.734604   35.679539
H   39.332985   54.299637   77.274818
H   80.753723   78.573044   84.513527
H   42.412220   39.788761   23.800133
H   60.176208   53.275860   40.163811
H   91.924057   40.478039   71.196381
H   80.448502   14.195868   95.151299
H    3.782710   47.133011   45.524254
H   80.158890   92.192574   43.198887
H   37.709000   53.909492   11.881515
H   22.217070   70.437241   37.435204
H   43.761696   18.835365   40.599743
H   76.355988   35.618675   91.969048
H   94.790138   65.553535   54.550003
H   79.655075   36.038296   61.027905
H   68.987717   16.935049   13.835508
H   82.775620   72.926292   35.477863
H   28.477716   32.393291   59.412979
H   46.999275   99.916862    5.416292
H   25.264137   78.131943   78.859901
H   85.325851   80.654953   96.982826
H    7.766958   77.080040   72.361115
H    5.978427   16.018898   51.714161
H   65.311020   54.116016    8.768823
H   32.232533   70.768478    2.482748
H   47.543964   97.067299   70.543549
H   51.041344   19.122377   47.846123
H   86.486984   15.970060   47.594746
H   66.157761   21.229052   91.362457
H   19.474060   64.878410   99.380821
H   68.261948   73.216766   10.078268
H   46.271194    9.101944   29.412125
H   93.347023   27.211914   81.868324
H   98.416618   91.013405   83.470284
H    9.693188    3.258643   64.409981
H   46.342190   38.283550   50.992847
H   58.549393   73.271332   68.145599
H   37.536243   28.868586   46.108822
H   71.400040   22.343761    5.924620
H    1.610280   13.184907   54.983517
H   76.807144   97.763283   76.640549
H   48.460732   25.855167   64.132034
H   96.239105   22.802492   74.861397
H   33.666607    2.473702   54.532967
H   10.070843   21.139105   39.190899
H   71.169159   91.737747    3.367178
H   35.219173   33.346893    3.983567
H   18.194199   72.042885   93.792778
H   11.748797   11.560222   95.897392
H   30.935175   55.581276   87.593719
H   45.745377   97.293579   63.223358
H   19.257912   92.492096   31.779648
H   27.249994    2.384024    1.331161
H   76.928169   25.690218    4.200416
H   59.814850   71.573128   76.467598
H   24.405800   77.441200   56.977810
H   49.291000   33.235325   81.608490
H   85.392830   86.850891   94.178391
H   38.138844   19.027504    1.198038
H   68.637878    1.331598   63.832722
H   20.259789   59.523369   59.943199
H   77.223244   23.416573   38.088902
H   76.701103   20.920042   90.060181
H   12.172892   25.455189   46.775700
H   41.368492   71.701370   52.200829
H   63.866055   94.807266   27.203531
H    1.299967   75.117798   59.898445
H   83.432655   73.751785   66.923683
H   19.199415   44.186554   27.819614
H   12.649950   67.584991   82.537857
H   25.593256   29.995926   18.862682
H   79.822029   36.173313   52.879784
H   56.563091   27.712748   57.152786
H   65.882057   26.902550   26.165800
H   67.917168   42.513237   89.848412
H   98.199249   30.737391    4.597567
H   44.668419   97.735237    0.660765
H   78.284485   58.516441   88.324150
H   60.428757   78.046631   98.111641
H   63.874565   23.536629   79.905151
H   70.257484   73.973450   33.504795
H   21.873989   11.414255   70.272766
H   40.468983    5.739081   81.941818
H   41.745235   17.546040   37.816399
H   11.570716   50.505116   93.028915
H   65.715736   42.842831   42.180405
H   38.550667   20.483555   93.811333
H   26.573521   32.028370   42.540459
H   27.607489   29.920223   18.333471
H    6.906108   74.228493   26.273041
H   82.659874   13.702728   99.163330
H   40.688168   57.098766   29.238539
H    0.159071   48.293442   78.469803
H   79.628380   86.064110   33.380993
H   90.104927   59.433620   89.265755
H   58.439041   25.059380   63.230614
H   40.858467   92.041168   96.073959
H   89.069633   84.147079    4.799218
H   93.064705   73.253426   95.946930
H   10.335317    8.080166   47.343567
H   94.941177    4.841739   65.239639
H   67.471848    1.873265   86.510216
H   68.574844   86.075264   45.780556
H   89.580650   70.215065   86.232063
H   41.294678   41.648575   71.595497
H   43.343941   18.298532    0.792555
H   41.112286   68.715515    8.707978
H   66.077164   35.177086   41.771061
H   61.177620   53.227055    5.860176
H   66.510933   33.477936   74.942787
H   31.277035   76.134750   42.790226
H   38.905220   58.667381   39.041725
H   40.190239   97.618614   48.656651
H   47.895119   80.565666   69.926537
H   60.052464   72.807907   99.853149
H    3.310420   86.528702   97.172127
H   82.987801   58.049206   52.793659
H   25.705378   12.422308   54.169174
H   67.256317   39.017788   10.205017
H    4.834391   96.735184   80.697151
H    5.998988   48.808483   57.279335
H   57.802391   43.052830   48.153976
H   57.301495   55.126019   78.482346
H   43.316330   39.740463    5.225907
H   21.169325    2.457782    9.725041
H   65.831642   64.777802   70.872910
H   52.069962   92.209679   88.520866
H   52.618755   24.051296   37.207306
H   56.954708   42.940796   37.311886
H    4.227133   14.539232   79.413635
H   60.792564   15.573468    7.938010
H    8.605712   70.547646   63.351383
H   78.205986    0.672311   50.186298
H   23.464489   22.196968   40.073261
H   91.464073   28.794600   37.310303
H   17.710991   11.908628   92.565460
H   83.032959    3.350494   35.992188
H   52.795753   72.577972   56.868515
H   33.963226   85.704239   95.826370
H   73.585655   79.146820   69.796707
H   80.361694   96.480881    8.258658
H   94.979202   46.623741   23.102541
H   37.390156   46.923347   78.876228
H    0.028351    9.017754   62.425121
H   80.511726   25.842943   71.380447
H   95.433830   52.395531   83.676506
H   84.923187   78.309044   46.183411
H   15.355017   29.871670   62.606892
H   74.474014   90.364975    2.269971
H   47.300255   24.864748   70.126808
H   83.040054   96.662018   79.187851
H   95.240898   34.603653   82.993263
H   24.666845    7.813416   95.011246
H   99.645172   59.092182   18.808407
H   12.178558   60.317204   64.349075
H   46.122116   59.317745   63.277241
H   38.648151   37.376640   80.672554
H   49.226891   79.711426   27.069944
H   99.835732   12.956275   53.408020
H   38.458057   55.867752   29.443655
H   91.483475   62.831264   22.444336
H   74.859390    9.912315   32.196892
H    8.185035   80.324059   96.986282
H   34.489609    1.221913   52.381508
H   14.473674   11.074663   86.603981
H   10.010361   41.497379    0.416345
