100
TIME:    7.418, STEP:  7418
H   15.673351   41.754555   92.354630
H   95.610245    6.833459   45.834301
H    7.279549    7.584895   36.264668
H   82.721695   27.029476   33.556553
H   28.727304   67.342751   64.572754
H   12.983582   93.171623   13.375183
H   64.190964   62.237896   70.550415
H   36.846123   30.353207   27.097527
H   71.279274   73.082901   33.149860
H   72.147743   22.896486   98.162453
H   10.250732   64.721909   25.210531
H   72.718063   95.516815   64.907692
H   70.728462   12.984253   87.926170
H   87.786522   82.211525   21.752895
H   70.705025    7.420494   94.171417
H    3.260957   62.923584   17.282038
H   27.595772   72.612976   48.678158
H   59.698307   33.878998   42.380287
H   60.799389   89.546860   54.169605
H   92.664536   48.282055   21.384501
H   24.082077   17.731651   55.903820
H   73.551224   53.931488   87.567078
H   86.701210   34.292107   20.112597
H   29.818441   25.569063   56.149384
H   64.273994   97.874710   91.323524
H   12.630825    7.419846   92.815620
H   22.416124   34.119102   47.154217
H    6.632899    2.686864   11.971354
H   72.468040   22.110941    6.519820
H   85.432632    7.244068   73.098412
H    7.999515   87.242035   22.490456
H   34.134212   47.558437   12.542610
H   92.870613   25.745863   66.068977
H   91.529488   93.907356   59.242554
H   96.341988   98.023369   76.369492
H   17.471817   66.438385   96.104805
H   91.281815   32.873169   92.974823
H   57.391151   23.198605   45.908394
H   31.956059   19.790949   25.452789
H   64.499763   17.734755   21.666929
H   28.283396   10.713902   17.109343
H   75.065269   70.692841   58.660732
H   75.126556    7.986271   37.283375
H    5.680203   37.153343    6.028613
H   13.199619   39.215290   90.888008
H   82.371788    4.403117   13.297697
H   99.687790   28.254688   96.669182
H   56.640377   71.772980   27.561321
H   81.865364   18.091671   48.567924
H   81.482178   43.640141   64.866951
H   42.992237   53.483658   31.622421
H   65.643387   75.403946   87.091156
H   62.745762   65.020813   72.043922
H    4.910851   86.172012   59.151993
H   50.162949    8.682565   63.444569
H    2.834869    4.730707   40.100571
H   66.519501   75.503090   61.500984
H   73.696213   76.348701   22.484781
H   75.316216   52.204800   42.005836
H   69.506218   97.959412   52.625023
H   27.634054   33.600586   36.030159
H   35.638618   58.896378   59.714821
H   77.669228    1.091619   24.795929
H   52.421253   82.172058   25.740223
H   26.755203   68.381958   86.374748
H   45.647888   73.502617   84.793900
H   92.408081    4.822966   25.203669
H   67.953728   41.781181   20.825897
H   26.613907   16.776154   94.987976
H   80.680489   21.231974   86.110138
H   86.476921   90.681122   73.167427
H   62.412159    5.292672   99.783333
H   23.323908   51.387028   71.553772
H   66.906090   79.933716   62.401123
H   19.803671   39.237797   63.739445
H    1.020726   82.997459   96.792610
H   40.495808   83.753853   22.300455
H   80.491455   65.676796   24.107622
H   17.234098   31.729717    0.441203
H   35.738815    4.925478   81.853920
H   56.034523    6.024972   23.346619
H   97.937904   92.577499   66.413368
H   87.080132   31.173254   36.396149
H   60.494808   46.933712   85.897545
H   91.134811   84.880577   28.660494
H   80.566452   81.530426   56.911667
H   62.586231   64.003441   77.262184
H   75.330864   11.477781   18.664795
H    9.627484   81.150108   67.521126
H   10.487538    4.077679   89.392700
H   27.597858   73.981270   90.116379
H   27.155779   53.383682   74.866997
H   60.961582   50.097103   92.649910
H   64.186348   63.214317   26.983118
H   28.340263   85.270309   86.544647
H    6.618010    2.803838   84.299446
H   73.796471   93.383698   10.572640
H   23.958864   53.500942   29.965822
H   55.336601   68.834923   23.701855
H   99.972801   88.276108   83.140930
