100
TIME:    8.180, STEP:  8180
H   64.142082   71.876183   91.656998
H   74.565018   48.127148   93.880081
H   20.377626   62.405838   27.319061
H   82.849594   95.633537   91.788765
H   21.899233   28.420322   43.911224
H    1.165977   92.346092   88.838875
H   24.256763   13.689960   30.139820
H   76.954422   96.276451   57.134186
H   52.547859   99.818909   85.185501
H   51.335060   33.837681   28.000412
H   39.371353   95.382828   51.810020
H   43.634369   33.711559   10.667961
H   22.138405   66.860397   12.201452
H   50.056267   79.862831   79.741966
H   79.960274   39.354904   57.523521
H   72.623016   96.276146   54.029572
H   66.320076   23.014576   18.046026
H   75.989548   96.800346   15.967344
H   72.669189   21.513760   94.316895
H   72.130905   32.102810   73.265053
H   78.863930   41.872814   35.224850
H   46.604908   54.943054   22.675690
H   76.527412   28.096643   98.309982
H   59.018784   34.684784   99.555374
H   37.019844   37.445610   96.951088
H    9.038021   84.957077   21.107658
H   56.709175    2.443005   62.275387
H   42.336914   38.254444   37.159599
H   89.036797   91.245834   70.499168
H   14.651003   88.384201   33.674652
H   37.989933   55.571434   62.203514
H   82.247551   26.507397   42.000481
H   46.545490   69.994698   34.715958
H   23.726624   24.074409   27.140303
H   77.378029   40.329216   22.729567
H   83.711319   26.122084   93.709602
H   64.366478    4.965078   53.017300
H   25.898323    9.252485   99.682228
H   99.790031    3.190218   51.609398
H   92.728989   46.399414   81.620361
H   76.206650   36.857658   35.061733
H   10.848142   73.681030   97.564537
H   81.684296   12.557213   92.323708
H   57.022266   49.944336   80.532013
H   47.100998    9.152988   56.095421
H   72.535179   18.934387   16.393438
H    5.644353   69.694283    3.985255
H   56.686886   79.621338   74.709602
H    4.142117   54.981674   18.169941
H   97.481201   55.238270   11.586404
H   42.939915   79.917122   39.656677
H    2.676167    4.695169   37.070953
H   78.547585   69.439148   27.790533
H   87.262390   73.742538   92.777847
H   89.490791   75.461517   69.921417
H    3.783939    3.929157   14.160294
H   14.829143   53.516060   33.973610
H   16.956263    4.386899    2.856118
H   35.413754   84.402641   83.507812
H   19.223770   56.531132   30.951927
H   75.701157   98.164429   76.618324
H    8.593758   51.803787   25.234940
H   29.400372   49.094757   72.543304
H    4.745255   86.322968    5.050291
H   57.002853    7.520689   57.336838
H   98.838753   35.621208   29.849796
H   31.272242   31.166759   61.992657
H   15.317387   85.359917   57.253906
H   64.594055   62.023705   47.198151
H   96.156288   59.502895   84.493958
H   62.280308   38.834351   64.028450
H   99.664825   79.991600   55.635929
H   73.639725   13.696054   52.016384
H   50.132854   31.707977   17.125772
H   56.509766   40.359821   21.514608
H   19.036081   31.833698   45.518768
H    9.701175   17.800316   35.814987
H   16.289789   15.853451   66.192566
H   53.772568   29.491482    8.945078
H   98.370995   63.416130   16.206764
H   70.952217   13.908212   68.890350
H   55.116180   97.519058    2.665756
H   35.277473   43.916660    8.964337
H   12.920735   12.139313   16.301128
H   54.032425   37.212337   54.793724
H   63.032314    9.518081    9.827285
H   13.478562    8.599651   13.597298
H   87.585930   50.502922   10.764114
H   25.443378   38.722466   61.288948
H   43.117092   72.729996   16.632799
H   58.782001   15.128291    6.208681
H   83.536064   10.693785   89.389366
H    9.807257   72.959709   51.576538
H   37.831215    9.443959   78.363640
H   15.163742   17.014656    4.054865
H   69.556046   72.712830   44.941383
H   13.312624   37.111992   66.749382
H   22.488024   91.206322   14.667337
H   19.036491   72.125420   59.877651
H   47.301777   68.719162    9.734260
