100
TIME:    0.827, STEP:   827
H   61.395668   46.181160   98.388870
H   78.265709   49.584530   30.167082
H   93.973450   33.401211   13.629532
H   81.615417   98.576683   94.832146
H   87.763687   39.045219   43.281349
H   15.192257    0.313571   60.646984
H    9.628048   17.180006   55.125248
H   54.885727   60.146961   32.261665
H   33.298759    6.780701   48.030922
H   52.239952   28.258846   40.075165
H   23.329498   99.518860   60.087814
H   24.275669   65.143944   34.061745
H   90.657028   11.672836   42.931694
H   14.133469    2.527436   20.174816
H   90.560509   96.153748   11.018637
H   68.272263   39.401852   64.392075
H   57.576973   36.687820   48.651329
H   18.816719   54.483688   70.875778
H   58.142006   13.045878    6.933340
H   70.263252   88.192963   72.607643
H   15.201187   73.887421   34.797966
H   41.646046   45.191483   48.838551
H   74.702385   87.896278    8.687992
H   42.204285   46.600315   45.655037
H    0.006461   20.587185   42.664391
H   42.866970    2.968349   11.658774
H   90.765610    8.098887   16.377058
H   62.760086   95.040756   94.109299
H   29.153503   24.123777   18.079556
H   32.703396   70.371597   49.132473
H   48.633579   96.204155   43.969872
H   17.974279   29.663177   22.704521
H   28.610195    7.975336   72.299644
H   13.044797   97.933205   36.910378
H   60.215446   96.405159   75.086380
H   44.459717   49.450329   17.798742
H   59.118298   74.249367   73.629707
H   29.809441   43.817738   80.800224
H   13.540918   62.853981   62.863800
H   85.299095   34.762104    3.100306
H   78.724792   84.557579   61.827587
H   57.295128   48.975067   41.653904
H   18.364271   68.459213   61.207092
H   26.549459   26.630754   61.592659
H   84.919136   99.262985   26.876387
H   67.389320   78.750786   86.561378
H   44.812428   70.354004   34.689888
H   56.283581    3.898179   19.747969
H   89.204887   63.955925   11.484038
H   43.234623   43.336864   25.823517
H   43.481525   89.801735   62.136631
H   45.323067   86.999649   19.770477
H   26.034372   26.803955   54.840050
H   57.538715   93.710136   68.309830
H   74.922943   31.003733    7.423744
H   94.600998   11.662807   64.473770
H   48.679077   65.684227   34.642113
H   64.478455   98.787392   92.253128
H   55.499718   73.711166   47.994625
H    4.446120   91.353317   40.087730
H   11.868210   40.111450   49.915565
H   69.559296   20.247757   57.937378
H   30.327457   50.758568   76.822609
H   99.827339   46.293159    4.685514
H   65.149330   94.792686   72.578789
H   50.541359    1.160547   95.084557
H   21.217009   76.953003    6.989388
H   23.239403   64.834152    5.737983
H   98.118584   90.363388    8.363564
H   47.138733   89.738914   99.991699
H   95.770470   39.133175   52.228855
H    5.777628   24.079155   17.170259
H   53.070068   77.398964   40.543484
H   11.988378   97.044968   54.057533
H    2.045734   29.820421   64.090141
H   45.210804   60.576889   40.282948
H   42.041302   54.867058    5.667582
H   70.834290   96.644920   60.113750
H    1.191395   51.079929   26.909801
H   58.967911   63.915840   49.674347
H   27.065632   37.837353   29.416008
H    3.373131   49.628494   17.624657
H   70.122231   21.060392    8.667509
H    7.059177   82.929054   87.892769
H   12.061153   97.153793   67.584099
H   32.258289   39.431721   99.212502
H   22.388189   43.223289   62.977642
H   69.268234   39.082237   87.144249
H   72.845161   48.125801   21.434155
H   93.218613   75.255249   53.777431
H   57.866795   18.087812   50.926464
H   39.476582   57.704262   49.280045
H   38.345314   52.409370   82.893639
H   27.160341   63.397911   82.578590
H   42.294300   75.652435   35.089195
H   62.228394   63.073662   24.733513
H   96.959335   15.140040   89.627335
H    9.901616   23.279083   42.804024
H   69.315697   40.415165   75.777077
H   90.600937   57.462574   18.033976
