100
TIME:    0.654, STEP:   654
H   73.095131   62.046181   98.547256
H   83.078011   40.204105   19.254271
H   91.001068   20.955280   15.660835
H   81.586380    5.704588    4.314612
H   89.313232   25.178505   47.972221
H   17.874924    0.501851   43.513554
H   18.694767    5.497964   41.596424
H   68.483185   45.180782   48.146484
H   37.551430   23.414078   58.921295
H   56.967781   25.775482   33.300194
H   39.421539   92.557785   76.752373
H   30.879055   56.472298   46.376274
H    1.662098   22.139664   60.125839
H   22.699451    3.060835    7.008961
H   88.456612   11.606286   19.334772
H   75.228058   54.534336   78.752426
H   71.485924   25.247055   32.899818
H   15.119800   62.896637   76.873337
H   55.448120    5.787880   97.819122
H   74.946205   91.820007   60.805229
H   25.467255   91.109283   39.492798
H   25.057728   44.963142   63.569790
H   77.012184   89.303276   13.637892
H   58.277847   44.525455   58.504120
H    6.193631   34.307392   41.388062
H   43.660221    8.122975   27.874136
H    5.683222   15.290612   12.944036
H   77.357903   86.965698   88.391556
H   25.391830    8.428203   26.256905
H   26.070242   74.653305   35.379269
H   41.828251   80.690224   57.659721
H    7.051166   34.442482   38.720009
H   16.424355   20.632376   56.714439
H    5.734943   13.787400   44.198784
H   64.515633    9.482821   64.551056
H   29.418190   35.860790   18.394011
H   42.526020   80.584816   59.997936
H   36.959259   46.984142   68.591286
H   21.318447   66.547020   79.444290
H    1.594327   50.958416   89.489494
H   90.548325   78.620735   57.750462
H   72.843376   41.210182   33.526051
H   16.874121   67.421783   48.711739
H   37.596573   23.731627   44.677010
H   99.926231    6.088588   12.071894
H   69.598808   75.498589   85.882957
H   42.985706   61.021992   33.211617
H   56.274342    2.116911    9.043700
H   84.147087   78.284592   18.385275
H   39.606258   40.703693   37.922905
H   43.494724    6.503805   60.312550
H   36.915398    3.052248   31.128090
H   22.445604   25.800842   64.888222
H   61.544567   96.532051   60.675617
H   88.694626   15.837591    5.955702
H   94.384537   11.844622   70.363098
H   37.712151   70.676033   18.188423
H   77.360535   15.124870   96.709061
H   41.856064   66.401642   61.276630
H   15.862086   78.056793   45.008263
H    0.955064   48.156151   63.403473
H   75.699402   21.858017   65.765320
H   18.593018   62.555702   88.691017
H   87.948372   45.352081    9.382986
H   58.282188    8.609770   56.467651
H   61.169075    9.760792   84.855446
H   35.097435   70.971283   98.636703
H   35.189644   54.940292   97.467583
H   89.497093    2.794053   19.214108
H   43.634438   81.038231    0.355500
H    1.263959   50.905231   54.303715
H   20.042051   29.820656    4.503935
H   64.349808   85.957100   44.979618
H   15.795917    7.992703   64.339439
H   93.704269   29.574263   50.975758
H   41.120480   49.488533   51.923016
H   26.333584   69.860954    2.606475
H   62.706436    7.956889   50.559101
H   92.899712   51.586765   24.980789
H   67.452133   73.337196   64.578491
H   23.680126   36.047588   19.076687
H   90.393196   48.498672   32.091263
H   59.175686   18.173143   92.190216
H   95.158417   68.125221    3.694435
H   20.485167    7.974977   84.354561
H   36.240383   33.076473   87.198906
H   10.833914   55.801796   54.728359
H   66.483276   52.933113   88.941933
H   69.255074   57.758324   22.849731
H    8.513794   82.374710   47.592449
H   50.786930    8.746325   47.273022
H   26.676332   44.692833   45.984291
H   27.245361   47.226181   69.510002
H   10.438826   52.903503   70.913445
H   45.285160   91.147888   31.113850
H   47.939316   69.905388   33.669136
H   10.691166    5.212193   99.576630
H    9.266421   21.806091   45.571823
H   77.557060   39.669430   90.269417
H   79.857071   61.906628   34.696762
