100
TIME:    3.053, STEP:  3053
H   10.860577   42.045616   96.350906
H   16.345573   70.274872   70.582321
H   32.233078   93.549530   87.501640
H   81.989044    6.865980   72.818909
H   67.825607   17.468914   82.925720
H   80.678596   97.900551   81.094994
H   92.962959   67.492012   29.201515
H   79.926514   52.724491   27.877514
H   78.579369   92.759796    7.910955
H   91.411201   60.219917   27.241892
H   16.272400   89.086761   45.668827
H   39.316795   76.721863   75.613319
H   49.060425   76.996567   21.685860
H    3.914598   95.665657   89.574364
H   17.636509   97.321365    4.016550
H   78.769638   44.702606   79.615578
H   78.603004   83.902786   51.314983
H   66.385338   46.233330   93.701355
H   92.818489    6.428886   24.206522
H   10.267250   40.981037   24.195032
H   83.107376   52.282211   74.377640
H   55.074432   48.136887   59.287125
H   44.982079   69.792366   45.001038
H   35.384750   73.297638   80.331596
H   20.391247   44.041626   59.086983
H   32.660168   36.640156    3.014069
H   98.814850   15.566953   60.549923
H   74.938042   98.943443   67.689842
H   77.555145   26.083853   12.855543
H   18.059067   15.278584   26.093025
H   36.209660   95.824326   67.835304
H   58.525459   68.157997   16.632530
H   85.406830   45.109947   72.835304
H    7.097291   93.933601   43.132385
H    4.881299   28.136871   10.635620
H   38.001125   24.313623   10.145246
H   72.620796   92.727524   49.029720
H   37.804985    3.075700   37.882915
H   16.203545   14.897589   48.453644
H   75.634399   26.371363   78.238503
H   26.600519   60.937054   14.273194
H   57.234917   48.879616   46.233337
H   37.538113   81.807877   21.995323
H   84.404739   63.941254   79.239708
H   91.830528   11.436687   17.364393
H   38.699711   21.148090   95.565437
H   65.586227   90.869720   54.767548
H   56.402462   26.816786   57.480263
H   54.269920   79.599785   22.688131
H   89.911552   77.211388   70.132721
H   43.311695   74.895950   85.607178
H   53.502476   80.443954   73.638908
H   72.208214   39.711060   25.555454
H    5.995213   57.397324   66.536957
H   97.708420   26.141174   26.315046
H   97.386215    9.323395   88.695480
H   89.799004    1.453479   46.353203
H   98.723869   88.569199   34.918411
H   31.060341   67.765411   77.103401
H   57.551102   62.452923   76.776009
H   52.286476   36.593311   76.359360
H   90.557671   99.525192   57.217590
H   81.328987   98.951469   24.117111
H   52.684219   58.402061   44.253017
H   53.502415   17.005657   79.881538
H   13.794449   90.499245   26.701332
H   42.620949   53.911068   14.460998
H   69.474144   92.140991   12.153655
H    9.062216   30.417213   68.754921
H   92.239319    1.698964   95.304382
H   25.086258   87.673332   25.526249
H   22.233641   50.202042   80.148621
H    7.929882   67.290855   83.468498
H   63.005779   56.180603   21.759682
H    9.369676   32.990406   32.836582
H   97.830299    3.240829   90.501526
H   44.147755   61.934036   45.043476
H   75.415817   51.093136   83.045868
H    7.916281   44.551105   51.744621
H   49.800514   42.681232   57.902512
H   70.624527   60.866344   62.459354
H   70.395081   64.165970   31.487989
H   10.962118   58.216766   20.682926
H   60.190609   73.410736   84.572418
H    3.673032   57.918797   51.798286
H   81.027100   21.195381   53.792828
H   71.057686   81.374947   69.122116
H    5.101225   60.863815   63.992172
H   19.041428   24.185846    3.222275
H   96.411896   83.666702   33.355522
H   48.963959   38.284954   97.935501
H    4.182478   25.108904   91.697762
H   81.157883   19.121634   55.097618
H   42.312168   98.419228   32.667099
H    3.804759   76.260895   86.242088
H   46.086884   75.171822    9.757597
H   20.269592   42.885876   61.608803
H   18.073622   42.232147    7.185740
H   63.275566   50.010578   89.315712
H   28.844614    0.290422    3.633939
