100
TIME:    1.378, STEP:  1378
H   24.133661   95.651779   97.884415
H   62.938667   79.458733   64.924065
H    3.441476   73.043007    7.159821
H   81.707901   75.876183   64.632072
H   82.828430   83.210304   28.341057
H    6.647957   99.715202   15.213388
H   80.748878   54.387806   98.214165
H   11.578217    7.817093   81.670830
H   19.754128   53.804337   13.346448
H   37.181953   36.169395   61.653252
H   72.076828   21.689075    7.013895
H    3.244085   92.762886   94.841957
H   55.606781   78.336388   88.166954
H   86.851372    0.828668   62.107685
H   97.261360   46.937160   84.533432
H   46.118256   91.206108   18.654770
H   13.278191   73.126328   98.819435
H   30.591553   27.688690   51.773727
H   66.723289   36.162552   35.960575
H   55.390732   76.550156   10.153238
H   82.504166   19.032837   19.843353
H   94.479362   45.918739    1.920227
H   67.345741   83.415031   92.923172
H   91.010368   53.208683    4.731327
H   80.299065   76.886482   46.729462
H   40.340488   86.548843   60.011909
H   43.252464   85.195633   27.311132
H   16.270302   20.760082   12.321387
H   41.134323   74.114990   92.034142
H   53.831676   56.734482   92.936028
H   70.308357   45.616852    0.369550
H   52.764896   14.441123   71.695717
H   67.423294   67.661247   21.938078
H   36.325554   47.437202   13.698566
H   46.519478   54.753944    8.640015
H   92.366180   92.732620   15.902776
H   11.967488   54.071144   17.046148
H    7.037062   33.732830   19.683544
H   88.770554   51.091759   10.051625
H   33.401505   83.179665   46.452656
H   41.069748    3.465785   74.809616
H    7.774406   73.704353   67.540878
H   23.110357   71.763397    1.008275
H   91.365150   35.865273   15.467910
H   37.124336   77.520950   74.029251
H   60.309399   89.200020   88.766884
H   50.630482    0.074851   39.398140
H   56.313007    9.571207   53.840755
H    5.312578   18.323715   89.504990
H   54.790859   51.723438   87.285851
H   43.439487   36.606895   67.946274
H   72.101250   35.870762   83.598801
H   37.464493   29.998840   22.837151
H   44.780193   84.722420   92.624588
H   31.057373   79.308182   12.099417
H   95.290421   11.083735   45.716431
H   83.610779   49.785469   87.046638
H   23.448963   46.752800   78.061111
H   98.957741   96.991791    5.693130
H   68.083710   33.705700   24.415977
H   46.626293   14.489249    6.956749
H   50.003235   15.118944   33.004662
H   67.702896   13.183983   39.022072
H   37.664001   49.290466   89.727089
H   87.017479   50.786083   23.891306
H   16.692390   73.768623   27.663465
H   77.008896   96.004608   33.592968
H   85.177788   96.345810   32.078968
H   25.581207   50.772034   73.807564
H   58.299812   17.452124   98.831451
H   78.274269    1.641218   45.620487
H   60.343739    5.792053   57.513321
H   17.143555   50.143688   26.414524
H   99.861443   62.178459   21.309959
H   28.611191   30.604429    5.859287
H   58.238369   95.889183    3.208335
H   92.068321    7.110844   15.417236
H   96.721268   60.617989   90.541367
H   27.603716   49.465672   33.054008
H   31.945908   33.904938    2.205330
H   37.848370   43.537701   62.348385
H   44.716015   53.226944   71.549881
H    4.988146   30.256197   61.147556
H   44.964573   30.078836   37.564919
H   85.231934   62.690910   14.170698
H   19.575436   59.673000   37.475868
H   59.188225    3.161104   89.251373
H   78.138245   94.968750   81.418678
H   84.279488   17.447493   16.925583
H   44.504936   52.582092   73.476418
H   80.415962   47.839062   62.562572
H   80.245003   99.145287   59.776924
H   73.699242   68.918930   25.520998
H   80.416939   96.818169   19.730522
H   32.768497   26.296654   47.751030
H    7.738781   41.314812   96.273254
H   53.223038   46.760967   57.939117
H   11.924693   27.970520   33.988663
H   43.067192   42.790310   29.622524
H   24.819870   43.308392   64.964790
