100
TIME:    0.295, STEP:   295
H   97.373207   94.968391   98.875931
H   93.064232   20.739162   96.609070
H   84.832947   95.127663   19.876083
H   81.526123   20.496302   23.992960
H   92.528763   96.403076   57.706459
H   23.441845    0.892580    7.959980
H   37.509602   81.257698   13.522098
H   96.699875   14.123756   81.108360
H   46.376335   57.930359   81.518272
H   66.778709   20.622143   19.241152
H   72.814850   78.112549   11.333927
H   44.582035   38.477379   71.930702
H   24.497780   43.859558   95.808617
H   40.475254    4.167714   79.689964
H   84.090721   43.671982   36.591908
H   89.662338   85.934517    8.552143
H    0.348997    1.505907    0.214176
H    7.448654   80.354721   89.319138
H   49.857918   90.728195   78.903915
H   84.664009   99.346649   36.313515
H   46.770828   26.849136   49.235252
H   90.634254   44.489304   94.136543
H   81.805351   92.223000   23.910175
H   91.632812   40.219822   85.165649
H   19.032461   62.778805   38.736832
H   45.306332   18.819450   61.522339
H   36.640438   30.213829    5.820125
H    7.650112   70.208786   76.526413
H   17.585815   75.856773   43.226990
H   12.305451   83.538467    6.840573
H   27.706209   48.496574   86.068138
H   84.383911   44.360229   71.954460
H   91.137024   46.898338   24.372885
H   90.566368   46.687653   59.323280
H   73.439140   36.620529   42.691406
H   98.203819    7.659353   19.629278
H    8.093698   93.731789   31.710033
H   51.796165   53.554890   43.258213
H   37.458187   74.210609   13.851903
H   35.407917   84.566429   61.245148
H   15.082180   66.300926   49.289837
H    5.108261   25.096926   16.659582
H   13.782334   65.268967   22.781586
H   60.521606   17.715517    9.575466
H   31.066730   20.252602   81.351257
H   74.183815   68.749809   84.475136
H   39.194996   41.654858   30.143988
H   56.255169   98.420044   86.830887
H   73.651421    8.017994   32.705956
H   32.076878   35.239483   63.030884
H   43.522114   41.163521   56.527317
H   19.469252   36.364990   54.696777
H   14.998484   23.719238   85.737129
H   69.855362    2.388783   44.833515
H   17.274155   84.366257    2.909363
H   93.935349   12.221928   82.584305
H   14.954163   81.034752   84.044334
H    4.092866   49.027626    5.956215
H   13.543510   51.233322   88.836243
H   39.551292   50.463242   55.219078
H   78.309372   64.850204   91.395508
H   88.441010   25.199539   82.007309
H   94.242241   87.036461   13.319963
H   63.297722   43.399208   19.130919
H   44.031418   37.282925   23.033625
H   83.223122   27.607807   63.628567
H   63.900261   58.559551   81.304611
H   59.988121   34.409103   80.305305
H   71.606255   28.589500   41.731037
H   36.362518   62.982903    1.110424
H   12.664652   75.332680   58.609348
H   49.642467   41.735100   78.220680
H   87.756897    3.715893   54.185238
H   23.697777   30.711187   85.675880
H   76.394089   29.063448   23.761108
H   32.632465   26.478922   76.079208
H   93.738861    0.975498   96.252991
H   45.839966   31.431084   30.731823
H   75.693611   52.637333   20.977810
H   85.058121   92.887840   95.506744
H   16.654713   32.333569   97.620468
H   63.458279   46.154129   62.112923
H   36.461552   12.181249   57.997131
H   70.464020   37.405125   36.485176
H   37.966064   30.431404   19.155392
H   44.503803   19.889675   62.268955
H   86.857094   81.904015   37.609905
H   60.704086   81.675682   92.672386
H   61.805122   77.747200   25.787258
H   40.253792   97.148621   34.757717
H   36.095188   89.360764   39.691601
H    0.113641   17.692965   39.145126
H    4.212139   36.470314   41.737022
H   75.741096   31.126146   46.708538
H   51.491627   23.305103   22.865494
H   18.287415   84.082207   52.211845
H   39.186333   84.609932   20.223289
H    7.948314   18.749420   51.315407
H   94.659081   38.121922   20.341351
H   57.561993   71.126564   69.273300
