100
TIME:    5.000, STEP:  5000
H   79.193031   63.495857   94.568375
H   62.387337   75.807220   93.371460
H   65.700867   33.623474   64.655525
H   82.315842   26.650925   66.097542
H   50.386505   73.529556   30.133335
H   50.487743   95.791222   73.913506
H   90.920448   98.960617   81.459518
H   26.896156   21.165813   49.111073
H   30.718391    5.563742   85.354881
H   38.202629   88.175957    3.482615
H   35.167206   67.428421   58.123440
H   65.007103   74.314873   37.023109
H   25.006668   59.230537   28.196777
H    7.511045   89.664467   37.742599
H   41.318977   23.407167   10.426193
H    0.483932   74.410721   17.997341
H   22.036995   12.682647   28.558073
H    7.989626   51.533962   26.199808
H   23.145103   88.108978   26.781694
H   57.806068   99.635292   56.755867
H   67.569633   58.452362   21.536041
H   41.735214   50.721558   93.482117
H   18.986824   53.957542   89.293716
H   54.486538   96.642792   35.729408
H   50.755035   89.634262   73.465981
H   23.753500   78.845337   20.240995
H   30.922922   34.632626   99.172768
H   10.656722   89.822815   32.045708
H   19.891594    2.731401   20.819302
H   92.716049   67.089653   80.874458
H   12.836032   70.414474   13.794853
H   81.460335   14.368844   36.388985
H   22.550213    2.658986   48.236443
H   89.362976   15.502452   61.108971
H   56.485062   80.958359   29.193359
H    7.279431   77.049980    3.707295
H   59.363281   21.425152    2.445857
H   57.331165   67.453621   75.276985
H   34.021069   72.475945   59.775055
H   92.249413   44.100235   31.423586
H   93.537582   27.745619   60.143536
H   82.248955   36.260330   37.702717
H   54.308765   93.483459   62.627930
H   60.075436   96.567627   69.608932
H   22.943087   34.616951   83.973778
H   13.580509   58.284168    3.473377
H   80.797165   96.754234   73.461754
H   56.506443   46.868347   77.949608
H   11.186890   18.350124   45.022644
H   30.742702    6.834547   33.957481
H   43.163151   86.925491    6.134896
H   48.122688   99.776306   45.821922
H   12.586301   51.000427   12.476332
H   60.900154   25.623695   52.452232
H   42.687866   96.780037   42.875187
H   99.822342    7.274208   22.415009
H   13.230905   45.273949   31.529152
H   53.745010    4.699096   84.766220
H   84.616081   50.031586   27.629940
H   29.070507   12.104085   21.398689
H   75.104370   46.048260   24.556816
H   21.455992   81.402786   69.121704
H   13.509915   66.092087   90.605438
H   86.380775   69.000275   91.388519
H   30.780321   61.503452   61.197346
H   94.188225   93.708366   41.822350
H   86.408844   21.226116    8.461777
H   34.981682    3.492040    5.231513
H    6.100286   90.518227   46.642052
H   31.686632   99.626953   91.204559
H   63.260063   55.200165    2.168047
H   61.693237   85.584564   22.697979
H   80.981750   70.984596   33.548546
H   20.139767   32.969242    6.070953
H    3.242241   35.768185   80.431732
H   43.862434   28.025431   59.491772
H   20.922194   93.179390   79.476051
H   66.889420   23.782261   90.570625
H    1.282470   38.832150   73.470177
H   54.315765   36.642704   90.166840
H    8.714205   81.008957   78.827400
H   16.480972   76.881363   68.680565
H   34.136040   90.737000    6.117894
H   94.142120   40.020187    6.744853
H    8.870337   36.132164   63.058479
H   36.216923   92.712379   88.998276
H    1.093414   39.812195   61.962830
H   36.437698    4.982843   43.745583
H   59.447861   15.780455   87.297249
H   24.271181    3.560402    2.956446
H   28.643303   43.417004   39.052654
H   48.248264   71.527145   28.798300
H    5.963161   77.547371    5.662251
H   30.496765   16.519217   63.941479
H   70.143959    1.859265   30.979816
H    6.901124   98.287750    9.192490
H   65.725853   54.620373   49.634506
H   25.218603   58.809692   76.023689
H   70.524658   58.403332   26.234497
H   49.779331   50.324268   16.074396
