100
TIME:    3.547, STEP:  3547
H   77.453278   96.743439   95.898636
H    2.603354   97.056824    1.743715
H   40.724457   29.088936   81.705040
H   82.071960   86.513176   45.740437
H   63.400894   57.065197   69.530975
H   73.020149   97.365364   30.017046
H   67.070473    0.847041   67.832954
H   41.099091   95.463058   82.520332
H   66.435905   45.263855   76.816643
H   77.910927   67.313026   46.587761
H   70.321732    8.963778   98.084801
H   20.460884    1.483622   40.449287
H   17.638069   47.109024   72.585442
H   79.454445   94.143013   27.168278
H   23.646053   53.194839   80.271919
H   58.907425    1.495382   38.609718
H   38.878578   16.577862   96.285751
H   76.938316   22.210228   76.575378
H    0.514474   27.154146   50.230923
H   96.958336   30.491858   57.828880
H   53.792709    3.101605   60.968674
H    2.434692   48.792679   17.218430
H   38.386467   65.774696   30.867432
H   89.486748   79.222382   43.642826
H    2.723739    4.863693   62.735207
H   30.393709   21.921228   56.709877
H   56.217815   95.031876   70.350441
H   33.256557   22.001663   84.016808
H   88.296570   70.903610   89.504219
H   37.000275    3.051263   65.364899
H   55.653522   40.121838   28.751595
H   89.717049   54.509590   70.900505
H   20.203028    8.967197   17.338728
H   27.971058   48.661324   22.321281
H   92.601654   90.793999   40.715378
H   80.955879   63.121830    8.443254
H   20.002796   74.636703   87.955132
H   17.388741   94.036674   72.742607
H   95.351532    4.135435    0.581988
H   29.106010   80.125305   17.104448
H   92.839905   77.888977   25.911482
H   12.837029   71.050980   69.442352
H   41.793224   84.770248   57.676228
H   52.858871   72.217834   27.541124
H   48.979221   91.945526   59.637264
H   32.326466   30.570393   97.570503
H   69.445602   17.735718   59.512619
H   56.428844   31.902945   88.046211
H   68.709885   38.686714    2.981718
H    0.268638   84.726616   35.582355
H   43.274006   27.203835   90.815826
H   77.510498   34.603920   41.208462
H   82.452141   42.575439   96.864723
H   94.554741   49.335602   88.336395
H   58.375961   69.435242   30.515509
H   98.004318    8.803350   71.878555
H   21.116671   87.199348   93.336571
H   61.939201   41.917496   22.193081
H   70.020256   88.637695   39.178051
H   24.953705    0.421226   62.725471
H   83.447914   13.620906   37.843548
H   73.024651   94.927109   34.864120
H   14.865705   65.242241   90.242027
H   86.605766   61.089302   30.839428
H   73.110359   77.551491   25.886045
H   83.447426   65.940956   55.910126
H    2.985649   70.989594   38.312115
H   35.350334   20.394079   35.769711
H   33.684311   94.921539   37.771198
H    2.249101   26.546000   94.264160
H    9.398521   54.062096   19.599621
H   81.500473   33.807236   16.316059
H   75.720306   42.856434   70.804924
H   52.130383   24.917831   92.403862
H   33.187016   33.695194   70.284584
H    9.508964   34.901894   57.260410
H   88.999580   19.115894   53.779835
H   98.624832   18.790487   10.326485
H   31.604269   43.100071   57.258553
H   25.573891   15.776043   15.343872
H   80.288040   65.977005   91.985077
H    7.459239   67.392166   90.179199
H   42.217625   66.463165   67.734131
H   94.178314   15.683308   39.452950
H   79.619598   27.017414    3.910615
H   69.660034   39.341614   88.097549
H    4.050848   45.457130   92.677872
H   13.051764   21.312759   58.855133
H   29.294777   96.681404   99.180916
H   52.736668   63.344559   51.012917
H   69.180450   64.957741    8.367959
H   40.736115   62.259155    1.112380
H   12.823945   33.944801   93.299400
H   90.058571   28.384026   65.973274
H   95.263725   32.011036   97.594078
H   86.889221   55.663887   84.241646
H   81.058350   71.235695   33.198677
H   19.886473   46.438263   99.281090
H   39.742424   52.140018   47.939034
H   59.527401   87.611855   56.046700
