100
TIME:    2.461, STEP:  2461
H   50.894684   96.335167   96.892899
H   32.813103   38.176270   33.239063
H   22.057173   50.957977   94.448174
H   81.889679   31.257887    5.266668
H   73.128098   70.017517   98.977722
H   89.856331   98.541908   22.466673
H   23.989822   27.515968   82.906258
H   26.456551    1.510484   82.233299
H   93.131859   49.678314   45.176220
H    7.588606   51.719673    4.058273
H   71.338806   65.266205    2.693871
H   61.913353   47.047791   17.752344
H   86.718056   12.813597   80.525291
H   33.226875   97.490364   44.523830
H   10.434788   50.200623   32.473831
H    2.572331   96.480927   28.757433
H   26.206711   44.746864   97.421646
H   53.735191   75.022148   14.226360
H   83.595589   81.595581   93.018265
H   26.215370   53.550739   83.888985
H   18.237396   11.216534   90.447708
H   98.318817   47.350998    9.701355
H   52.886131   74.607063   61.938293
H   90.387924   66.197540   24.298363
H   41.563835   90.994293   54.719429
H   35.374645   54.277485   58.501480
H   49.864494   40.176426   48.802242
H   24.890165   71.310875   48.120258
H   64.682831   72.373207   40.838860
H   95.359673   29.930496   79.031212
H   12.911935   42.737194   14.673479
H   21.146065   84.517128   71.436974
H   43.707363   88.424156   19.503271
H   82.084023   48.186752   68.073059
H   19.597912   72.887360   74.585426
H   86.528549   77.809441   12.179975
H   15.841271   14.408667    2.382581
H   62.271416   13.910770   96.108116
H   41.193901   27.794744    5.823329
H   31.395067   81.792900   31.660185
H   67.057655   40.625896    0.324696
H   10.440552   22.308449   18.421209
H   32.438869   78.257828   79.233574
H   22.207487   54.018280   21.357855
H   43.181896   34.792255   66.705421
H   46.337284    9.856586   93.162605
H   60.958263   58.675385   49.081146
H   56.370846   20.721632   20.850624
H   36.966820   28.629444   46.304550
H   77.499931   68.205284   11.539745
H   43.356861   32.050270   79.365234
H   24.732294   35.376537   12.501110
H   59.930595   36.278442   59.939919
H   19.703098   67.056908   40.412933
H   44.840584   74.250107   21.288343
H   96.645493    9.945557    8.848557
H   52.267460   18.536186   90.048943
H   42.805511   44.476746   50.166458
H   84.370689   42.752468   22.550566
H   96.618958   16.948164   93.613899
H   14.942215   64.122017   22.517208
H   11.567657    5.036465   84.002182
H   41.160969   39.331932   64.724045
H   12.031397   55.181725   60.327602
H   30.002728   64.289215   24.748983
H   50.162056   19.929298   91.698875
H   90.117531   33.446346   85.878922
H   10.367741   58.284546   83.852631
H   79.558617   72.954567    5.881946
H   80.243225   71.925362   96.550964
H   43.885185   27.953531   32.628803
H   71.045654   69.849258   36.804482
H   46.530167   96.576500   98.644279
H   76.032005   93.642242   56.944008
H   80.825706   32.145802   87.958115
H   83.837868   65.301140   30.335869
H   90.397766   13.243410   34.573994
H   47.602581   89.801918   50.352818
H   79.525986   46.289997   45.136833
H   78.833229   74.923721    8.903852
H   59.042027   54.741833   27.076611
H   25.974953   60.299759   80.989967
H   73.509445   48.334442   64.297974
H   19.464413   22.752535   38.644653
H   32.499802   94.946640    9.186063
H   94.649170   99.450218   12.682630
H   31.519354   24.418182   40.893356
H   95.572403    8.260851   70.152809
H    6.754787   57.147469    8.065758
H   48.753429    8.021706   12.193334
H   24.736908    6.319180   85.433548
H   60.379787   80.591118   80.415291
H   43.186115    1.374311    9.304659
H   85.092781   62.512058   92.751366
H   14.041405   29.288208   72.638084
H   97.190063   98.549751   40.335220
H   67.259750    8.912234   95.654945
H   15.901086   37.191620   16.658260
H   91.477226   47.458698   38.903702
H   92.077713   15.490517   60.656281
