100
TIME:    1.691, STEP:  1691
H    2.967322   66.948013   97.597855
H   54.232018   96.427864   84.668053
H    8.821623   95.561852    3.485024
H   81.760437   62.980980   47.474377
H   80.024918    8.298619   19.854500
H    1.794113   99.376106   46.211391
H   64.343315   75.522697   22.691261
H   86.977028   34.894810   52.932709
H   12.059990   23.710754   93.644234
H   28.628607   40.663612   73.908928
H   42.962326   34.283390   76.863297
H   91.298691    8.451736   72.561913
H   35.698021   59.399544   57.056618
H   71.353249   99.863716   85.925789
H    1.068112   18.980282   69.489029
H   33.533493   63.830055   92.673599
H   88.113602   93.825516   27.316645
H   37.280342   12.467436   40.922653
H   71.599586   49.294167   52.449718
H   46.958702   69.901962   31.463755
H   63.930298   87.872803   11.348042
H   24.492069   46.331863   75.269997
H   63.166740   80.869423   83.968170
H   61.929298   56.962620   81.486130
H   69.104118   52.061981   49.038658
H   38.905300   77.221313   30.675268
H   16.261593   72.185806   33.522320
H   89.860397   35.369869   22.667398
H   47.940125    2.513029   77.238091
H   65.833763   48.987808   17.818211
H   82.620888   73.685410   75.601227
H   72.527985    5.793653   42.719719
H   89.469315   44.760323   50.135590
H   49.550301   18.752541    0.512755
H   38.739372   31.093636   27.698647
H   19.580673   17.320387   14.826497
H   41.987839   42.608742   41.709415
H   94.099861   28.004017   41.770161
H   74.700455   44.410133   80.052902
H    3.920500   53.878071   71.079422
H   19.680428   14.205691   82.183762
H   79.643738   87.750572   82.246185
H   25.806410   73.640366   23.616364
H   71.377586   41.111710   46.070782
H    9.974190   65.170212    0.813101
H   56.271290   95.170021   90.037300
H   53.935474   16.959978   42.072701
H   56.329723   12.793814   73.207436
H   14.461095   92.401207   77.020523
H   61.355473   56.487499   65.392662
H   43.415607    6.388124   71.246490
H   87.312813    6.826535   63.052334
H   43.957466   31.813721    4.658497
H   37.532612   79.616875    6.436262
H    6.138824    6.746665   14.755470
H   95.682053   10.754787   35.061172
H    3.454748   40.754051   16.815756
H    0.141934   17.193417   69.999222
H   23.642632   10.217040   81.664780
H   47.429424   57.764805   15.513545
H   66.370285   99.933784   82.551903
H   38.894257   12.204987   18.841431
H   88.932220   91.839409   17.549171
H   59.158394   50.993111   81.230583
H   99.439857   25.786404   53.041294
H   97.464607   58.208412   46.170467
H   51.896683    6.826076   48.704235
H   63.556831   14.247109   47.042179
H   41.182014   28.281845   54.177002
H   64.640198   33.195107   98.172363
H   68.335411   80.344933   41.866550
H   34.536617   95.403915   80.429253
H   96.734787   34.662281   18.388454
H   92.974449   42.369995    2.707425
H   43.701233   31.049791   29.587627
H   65.638252   15.949450   82.146416
H   20.486452   79.982895   20.954210
H   11.426585   40.150436    7.826622
H   42.607521   48.548679   36.545265
H   16.595840   16.858065   75.240059
H   43.973591   46.775829   81.055977
H   68.201569   55.271072   45.377396
H   24.792255   35.480743   90.959351
H   66.496895   56.862652    8.975777
H   69.991714   43.111694   83.829025
H   12.370838   71.169731   59.211449
H   80.092781   80.403442    4.176497
H   83.176926   69.909073   78.165810
H   90.774849    0.020545   14.364834
H   16.831055   39.703606   84.666588
H   93.225197   64.739044   69.172562
H    3.403892   22.685053   65.740456
H   93.782326   78.298996   49.735641
H   10.668818   15.803864   40.833977
H   27.356262   98.259369   54.943687
H   33.591278   28.954817   80.106491
H   28.378456   64.723503   39.938370
H   13.073918   30.635529   28.980305
H   28.156826   44.139530    3.404614
H   44.258194   35.267994   34.818672
