100
TIME:    4.754, STEP:  4754
H   95.829262   86.055367   94.793594
H   69.181465   62.477753   77.861328
H   61.471611   15.925807   67.542091
H   82.274551   36.786308   79.580696
H   52.589905   53.811569   36.803329
H   54.303341   96.057732   49.551128
H    3.813925   82.350662   62.221996
H   46.231270   99.884125   71.698097
H   36.765541   29.215775    0.838818
H   44.925438   84.643761   93.850098
H   58.049530   57.530018   81.819839
H   74.395012   61.984093   54.533943
H   40.704483   74.106300   52.640625
H   19.691067   90.422707   19.021212
H   38.327309   45.380737   22.251389
H   10.375633   95.926712   38.417908
H   41.818794   96.411636    6.163724
H    2.729132   63.502514   34.727489
H   19.313553   77.790161   13.822176
H   64.433281    4.859499   40.007027
H   82.167625   82.941681   28.212868
H   18.150955   50.394989   14.431229
H   22.271278   55.958244   96.331833
H   77.343369   93.698425   54.000359
H   59.553619    9.142929   71.649208
H   24.874907   86.116180   43.373417
H   52.136696   44.859478   94.293007
H   31.413414   78.340363   23.913401
H   14.542497   80.412193   32.447243
H   83.283096   73.178093   61.317879
H    3.153940   48.355534   33.257591
H   65.927681   21.164963   59.162453
H    5.222078   20.656927   26.074820
H   78.969086   38.046936   71.472832
H   62.599777   99.554001   14.214371
H   85.894974   57.782429    4.481202
H   35.769638   30.434879   83.061996
H   67.498604   71.954262   57.916958
H   44.405575   77.836174   83.614563
H   15.420126   67.130577   12.068766
H   10.349766   19.305510   54.347881
H    4.358165   25.219511   26.147066
H   52.189823   92.008270   44.859970
H   75.784042   92.440094   45.556496
H   44.281178   44.322044   62.923237
H   16.754589   53.592091    2.473377
H   78.875290   83.376183   71.100700
H   56.493305   44.334625   62.728508
H    3.996619   38.723125   54.836594
H   25.583294    3.090269   51.162392
H   43.181919   10.675312    3.541584
H   36.167274   22.603334   61.972054
H    7.483643   49.574036   26.763708
H   66.597191   29.638237   41.596642
H   62.274475   75.219002   40.782520
H   99.514542    7.532976   30.789429
H   97.635635   52.372124    8.132418
H   72.062881   27.931253   91.102402
H   65.213402   39.637695   46.516273
H   45.303219   93.195770   28.395515
H   59.586731   57.487545   43.736153
H   30.186071   83.692520   80.251312
H   96.809090   82.878464    7.474419
H   69.489296   67.660217   98.066284
H   21.016108   81.150360   38.288746
H    9.299919    5.937574   27.276907
H    6.145841   12.721437   96.584641
H   51.974510   89.423111   93.471291
H   93.840042    8.194199   62.071480
H   26.702707   87.254883   91.722565
H   71.071434   71.937744    5.119202
H   81.977814   93.748779    4.686969
H   97.021149   83.153969   39.856575
H   25.554424   48.537556   20.686806
H   91.380989   35.417217   61.783535
H   38.046135   12.259111   76.044907
H   98.586960   14.500851   75.125557
H   55.331890   39.868099   76.986122
H   89.484871   39.554729   70.726250
H   66.380035   50.041401   11.359837
H    3.900402   78.463974   64.124306
H   98.022926   75.274796   89.250633
H   18.575235   86.622986   82.690918
H   77.216858   18.969069   29.212578
H   20.848932   51.520302   86.905495
H   41.879322   83.677315   71.915359
H   84.663628   57.698395   50.232635
H   32.477585   24.677633   46.303703
H   54.342880   29.476637   89.309212
H   46.021442   13.682152   94.162018
H   18.575981   30.134537   33.857586
H   30.046755   53.025345   24.111853
H   90.194221   70.164101   86.638657
H    6.719364    1.597388   47.355923
H   74.396858   23.895073   25.327740
H   86.582474    8.001696   21.898888
H   85.252403   40.502850   63.782059
H   24.315847   56.715149   79.961281
H   82.243591   57.342922   46.840225
H   34.500050   56.636051   39.772511
