100
TIME:    9.600, STEP:  9600
H   68.113190   41.655708   90.356949
H   35.346878   25.073704   83.416008
H   44.786045   64.566338   10.650482
H   83.087936   37.131340   13.953395
H    9.175005   42.239319    5.411108
H   79.151367   90.807701   29.465691
H   49.833233    9.575290   41.185680
H   65.345230   19.124317   26.753441
H   17.641548   63.291092   95.801231
H   12.547552   54.226780   83.599556
H    7.286400   52.517853   15.026667
H   89.435280    4.889015    9.590839
H   31.589615   80.913078   71.085434
H   79.747147   75.486000   87.804085
H   97.207588   12.513496   89.236595
H   15.527641   72.077805   36.157288
H   52.132149   16.936798   47.314224
H    6.357375   27.702751   66.741287
H   94.791687   81.085388   69.126572
H   33.874668    1.947112   69.945244
H   94.598618    0.507063   96.682709
H   82.741699   56.828125    1.749616
H   57.568367   16.553293   57.683456
H   27.079109   51.672089   94.094498
H   86.233871   24.832336    7.434501
H    2.340210   43.095505   87.479225
H   34.259995   43.416706   90.443771
H   22.521818    4.535253   84.097557
H   19.914089   20.079119    3.375532
H   69.099724   53.239548   46.560768
H   93.875404   82.906143   49.857651
H   71.907211   87.274078   10.543953
H   46.569077   66.100708   62.640770
H   83.724625   93.940056   67.318703
H   42.038368   32.815254    9.123933
H    7.149240   37.346767   89.246101
H    0.564338   52.962654   64.907791
H   67.204216   83.270180   99.887520
H   39.853413   72.249596   14.001183
H   58.979946   13.462554   93.342545
H   79.159683   85.581787   68.516319
H   91.177910   79.249954   70.055412
H   93.904755   21.076855   94.891228
H   66.358803   73.784950   19.370770
H   23.926123   53.136997   77.611328
H   54.210281   46.016125   22.162405
H   16.746365   46.921551   17.621679
H   56.773556   94.246887   62.570774
H   45.646301   37.378040   61.528214
H   27.287184   76.858025   12.300501
H   44.736073   42.968384   51.719254
H   71.688980   72.930984   43.855965
H    7.995825   77.672791   45.319931
H   54.374329   50.573723   55.437447
H   76.428444   99.902374   81.990204
H    5.552547    2.435455   65.820129
H    4.851174   12.542625   69.027321
H   11.220365   70.285500   66.281151
H   47.411480   44.405197   74.493950
H   25.518131   65.677246   90.563759
H   65.279846   32.127178   65.910423
H   58.195152   38.586624   60.987579
H   25.805573   52.198250   75.170425
H    2.254181   94.058258   66.502609
H   13.362632   94.106422   89.574532
H   11.606606   65.029167   13.811706
H   17.342518   80.258118   30.550861
H   17.228287   66.571663   25.138123
H   35.364967   59.991562   58.138813
H   24.995987   30.827478   81.482178
H   17.181229   42.213688   46.997810
H   82.730232   32.843163   59.720753
H   81.054230   43.454456   15.604183
H   18.877514   41.835964   32.753578
H   24.912039   42.450733   29.179937
H   52.609840   22.842323   49.970482
H   38.667915   94.895309   61.003433
H   82.997490   23.008293   44.622818
H   21.868872   25.320492   24.793634
H   28.731968   86.061409   93.872749
H   98.751595   28.598764   53.762352
H   61.671005    6.734661   83.867561
H   25.094267   67.664223   44.198948
H   10.614205   33.652420   86.605797
H   84.891495   48.381653   17.141760
H   30.346920   61.680206    8.436366
H    8.317217    5.353721   81.308174
H   10.422602   36.875648   96.043915
H   54.912357   59.659508   49.675179
H   17.569658   14.305252   67.391235
H   16.894888   91.802628   36.196556
H   88.601685   17.491289   16.445772
H    0.832139   15.561880   61.387321
H   73.172585   95.449448   77.020485
H   90.611557   89.819801   36.682442
H   86.842209   16.638876   71.596375
H    0.599861   18.602680   85.083054
H   19.747087   61.466824   86.155724
H   51.391106   78.257317   40.937313
H   35.504173   32.283894   72.942078
