100
TIME:    5.945, STEP:  5945
H   15.286484   76.835411   93.703201
H   36.287941   27.014441   52.957623
H   81.951706    1.611602   53.560101
H   82.474457   87.715668   14.296750
H   41.922226   49.275391    4.512581
H   35.830265   94.767433   67.500420
H   41.392567   62.773899   55.359821
H   52.621017    2.920709   62.344715
H    7.488487   14.705998   25.869963
H   12.381849    1.744902   40.488529
H   47.265610    5.452624   67.096138
H   28.936783   21.682514   69.757515
H   64.704117    2.083950   34.296562
H   60.719902   86.751717    9.656498
H   52.811363   38.995834   65.003479
H   62.488358   91.757484   39.554413
H   46.045631   75.185600   14.585150
H   28.197920    5.555134   93.441444
H   37.862431   27.753206   76.567032
H   32.348343   79.563271   21.095819
H   11.491982   64.374756   95.886696
H   32.333282   51.976059   13.006577
H    6.368454   46.271919   62.257050
H   66.682686    7.947726   65.547089
H   16.957203   14.691086   80.445045
H   19.445658   50.911278   31.376781
H   49.435341   95.349747   17.923925
H   30.920250   33.932198   63.285675
H   40.439461   88.469116   76.149048
H   28.950260   43.701134   55.998886
H   50.029572   55.154537   39.029457
H   41.128086   88.258286   48.905617
H   89.114861   33.517326   33.369507
H   29.292656   28.898857   21.297548
H   32.995605    9.522909   86.737442
H   89.426559   51.066826    0.735264
H   50.001457   86.816040   76.908119
H   18.275555   50.158802   41.963223
H   94.131012   51.884819   68.197655
H    3.241259   55.632961    5.774233
H   28.952564   60.167992   82.407326
H   99.201645   64.916458   83.461876
H   62.448605   99.150345   30.888012
H   99.736389   12.429525   62.005608
H   40.970951   97.333939   64.840073
H    1.386163   76.308609    7.313410
H   88.179977   48.147659   82.531654
H   56.556911   56.601547   36.420811
H   38.807549   40.084602    7.324662
H   50.562382   21.218054   67.861862
H   43.093380   95.691757   16.096989
H   94.048973   12.087540   83.783760
H   32.189373   56.479858   57.593815
H   39.018478   10.202659   94.153587
H   67.445183   79.596680   50.914089
H    1.000250    6.280160   90.244965
H   73.138130   18.006569   21.406548
H   83.378815   15.455652   60.426010
H   59.145233   89.959511   55.083900
H   66.708832   84.740540   94.520653
H   34.716267    2.102781   50.876186
H   87.918251   72.606857   26.361374
H   77.667152    1.606535   25.803955
H   51.272804   74.148056   65.736130
H   68.291855   86.027054   49.201206
H   36.135094   46.729454   97.698128
H   10.589802   53.894810   54.087112
H   69.703911   57.538364   50.407978
H   53.201420   22.616539   87.372467
H   50.828651   47.158997   89.214661
H   33.252968   90.902924   90.833717
H   83.774490   54.222031   91.886826
H   19.366249   24.242531    9.316483
H   99.339241   73.159081   49.921501
H   48.802692   37.116413   52.069595
H   66.204826   88.591606   95.906830
H    6.722039   11.272585   96.188316
H   11.287242   61.992752   42.760452
H   46.596401   36.056385   84.010872
H    7.976872   85.167061    8.754109
H   27.206575   90.785416   35.307240
H   87.400879   83.024979   89.641441
H   93.908699    6.540339   96.114777
H   59.155113   20.885635   20.433514
H   62.857063   77.022453   71.451340
H   14.465023   27.423100   54.622086
H   64.207832   71.102852    7.024049
H   51.640953   29.348383   33.937370
H   79.058456   63.164070   79.568367
H   40.720890   64.684616   36.736794
H   67.316551   94.444901   59.009319
H   18.168695   42.599823   46.801117
H   66.539444    5.897665   78.740555
H   21.829079   73.849434   27.661150
H   53.806602   17.212345   52.695499
H   84.954193   60.969940   60.381958
H   90.716484    8.852025   95.286667
H   26.802103   80.616547   59.533646
H   25.506805   62.476856   47.081642
H    8.478790   26.076904   25.039700
