200
TIME:    0.003, STEP:     3
H    2.188628   63.261547   11.287024
H   25.851894   29.417902   80.275925
H   23.105177   58.764702   33.674675
H    9.853748   74.203651   50.697186
H   17.726587   77.722519   57.065990
H   97.328613   59.247547   72.565117
H   99.925575   55.472290   45.064045
H   97.577789   78.652161   33.484825
H   77.803604   91.059273   53.501030
H   19.204082   78.218681    5.420341
H    3.932842   89.531319   85.472244
H   29.797775   35.696972    1.449651
H    5.357303   79.142357   71.005150
H   15.606178   52.207020   30.845425
H   31.064400   70.120148   43.561726
H   36.208488   35.731369   59.435596
H   73.058258   96.618538   26.938768
H   42.190098   71.773781   47.739723
H   57.140011   38.281788   38.994976
H   89.302246   82.959373   46.658016
H   55.240829   64.927422   36.698513
H   95.305260   39.755455   79.707741
H    2.102416   64.264641   54.822891
H    3.629080   85.965736   92.343262
H   92.945297    3.171998   53.867146
H   18.857279   51.819077   14.784101
H   94.306633   54.041279   39.552826
H   89.071320   60.352337    0.107666
H    1.086685   63.733467   39.726131
H    3.759416   14.415421    6.823851
H   13.670915   41.547733   15.905054
H   36.235817   57.951645   87.768173
H   32.849762    3.885831   70.284279
H    4.270870   63.319351   34.147789
H   59.361805   99.594040   36.021832
H   40.802921   55.325657   76.758804
H   79.462143   79.544304   84.175697
H   44.638153   38.624725   25.823420
H   61.841667   54.887245   39.163540
H   92.355614   40.663090   72.954193
H   80.436142   16.300314   93.657845
H    1.542884   48.076633   46.858578
H   80.969131   93.226318   41.527935
H   37.809250   51.724072   10.272103
H   20.679585   69.064293   35.811287
H   44.394955   20.006525   40.110336
H   75.507980   37.823322   90.982338
H   95.885681   65.554222   56.167740
H   77.914772   37.745983   60.995461
H   70.597900   16.731974   15.739362
H   83.846100   73.495865   37.261253
H   30.197935   31.618755   58.445324
H   45.785801    1.204559    4.827558
H   25.933874   77.182312   78.193512
H   87.230606   81.655739   98.438171
H    8.343826   78.188629   70.887573
H    6.106851   15.848649   52.196873
H   64.819382   53.069912    9.581038
H   33.181992   69.899185    1.394374
H   48.584747   97.319984   71.375420
H   51.187084   20.000340   49.160877
H   85.678459   15.863502   47.249878
H   64.918022   20.296844   92.880630
H   18.383753   64.814209   98.376259
H   67.538567   72.545914    8.238101
H   48.036388    7.353693   28.603256
H   95.027931   28.161116   80.938606
H   98.668617   90.911095   82.579361
H    8.092574    2.650533   64.979553
H   46.601227   37.499229   50.995251
H   58.569134   72.493019   66.941910
H   38.800873   30.051418   46.423820
H   69.971817   21.565792    7.431377
H    0.144240   14.174020   53.673569
H   76.259201   97.034752   78.756447
H   47.323303   27.443893   64.425919
H   96.429306   21.127249   75.497917
H   35.333267    1.654268   56.071739
H    9.728722   19.134186   40.187565
H   71.847221   91.988716    5.501318
H   33.309269   34.107353    4.651523
H   16.215544   72.852097   95.183922
H   11.924364   11.066609   97.214035
H   32.402599   54.109795   86.127045
H   47.347836   96.817734   64.498566
H   17.990107   94.066574   32.716404
H   25.233145    2.290254    1.227998
H   77.302391   27.365032    2.503126
H   58.438297   71.461205   76.303833
H   24.631191   75.424179   57.472881
H   51.177216   32.846855   81.808647
H   85.706284   86.456070   93.196487
H   36.001144   19.535021    2.479612
H   70.655930    2.948305   62.597275
H   19.119528   60.132080   58.069000
H   79.086800   22.410465   40.204628
H   76.090675   22.476496   88.122124
H   13.409969   24.755926   46.349636
H   42.388161   72.152153   52.041355
H   63.083622   94.075989   27.192545
H   99.292236   73.873596   57.779285
H   81.759300   73.070976   67.171906
H   18.266607   45.831070   27.190733
H   10.487617   67.501907   80.750862
H   25.652967   30.587313   17.403675
H   78.040527   38.376587   54.986584
H   54.431400   27.153990   57.362213
H   66.147102   25.174778   27.905846
H   66.773560   43.081264   87.672432
H   96.753860   31.364813    4.377326
H   44.076359   98.126282    0.629104
H   76.477577   57.384678   87.811569
H   61.210331   77.524437   99.090454
H   64.027000   24.506773   81.065582
H   71.759178   72.099594   35.082706
H   23.710423   12.730726   68.242699
H   42.319149    5.105415   81.417221
H   41.973545   15.331094   38.715904
H    9.861741   48.815624   95.252960
H   64.528183   41.944698   40.501728
H   38.081001   20.184521   95.285904
H   28.515182   33.094387   41.216778
H   26.522478   31.818106   16.998547
H    7.569107   75.847946   28.243628
H   84.005013   14.814536    0.651565
H   39.039532   55.867439   30.107403
H    1.277464   48.083328   80.207703
H   80.612686   85.711174   33.000935
H   89.551147   61.062515   90.291260
H   56.257912   25.272669   62.463974
H   39.041946   93.647919   94.354256
H   90.796890   83.700760    3.738029
H   93.211647   71.064056   95.612190
H   12.541895    6.926386   46.789616
H   92.718163    5.655393   67.307472
H   68.670387    1.931018   87.173172
H   68.500343   85.960594   43.540375
H   89.196815   71.619942   86.943085
H   40.118454   41.019264   71.606140
H   43.319565   20.456831    2.043098
H   38.884464   70.039024    7.254393
H   68.148773   33.809803   40.722038
H   62.624210   52.398788    7.377963
H   68.572929   35.106831   74.197090
H   29.161823   77.627174   41.318745
H   37.256413   57.891987   41.196934
H   39.125938   97.815681   48.978859
H   49.123871   82.240738   70.184715
H   58.849461   74.686569    0.300560
H    1.866384   86.021614   98.852005
H   84.573952   57.284969   53.133377
H   23.811180   13.667454   55.579372
H   65.165825   40.700413   11.784817
H    3.644824   95.702126   81.809174
H    4.214547   47.620071   56.465145
H   56.466522   42.941250   46.769527
H   56.830456   53.776588   77.949509
H   42.676548   40.462471    4.171628
H   23.228918    2.627340   11.393805
H   66.335983   66.613892   69.145996
H   51.627934   94.037872   89.717346
H   54.731564   24.284498   37.597149
H   55.017681   44.902714   37.330597
H    2.575355   13.217225   81.338989
H   61.223434   14.046540    7.495853
H    7.830399   71.979301   63.597374
H   78.980865    1.400022   49.709251
H   23.425179   20.149563   38.212452
H   90.852615   28.940941   37.416561
H   15.657407   12.248217   93.072205
H   83.892639    2.815340   35.995964
H   54.350319   74.249268   56.730328
H   33.093761   87.637833   97.092545
H   74.139091   80.225540   68.754379
H   82.453217   96.819397   10.374385
H   93.589775   46.380669   23.059368
H   37.852440   45.517612   76.993790
H   99.629417    8.974838   61.849712
H   81.662544   26.889048   71.906761
H   97.574448   51.912819   83.041702
H   85.744759   76.696457   47.229687
H   14.447400   29.816738   60.964092
H   76.545624   90.411667    1.379338
H   46.320412   24.781406   68.471306
H   82.458122   98.613808   79.373245
H   94.298820   34.223938   82.768044
H   23.100006    8.584224   94.014236
H    1.807046   57.186226   17.233843
H   13.481726   60.116531   63.834778
H   45.303806   59.562534   62.708698
H   36.498436   38.865459   80.993904
H   49.595791   78.488510   27.643122
H   98.836319   11.885709   52.377193
H   39.244267   54.071659   28.536728
H   93.027740   64.841179   22.591536
H   74.749527    9.801894   32.813499
H    7.885923   79.097023   95.467422
H   35.797497    2.116134   53.650600
H   15.073759   10.948750   88.616539
H   10.479726   43.021904    1.041646
