100
TIME:    6.369, STEP:  6369
H   86.613113   37.952354   93.315018
H   24.578762   49.991673   79.691872
H   89.243088   32.114769   48.581646
H   82.545624   70.247406   91.056030
H   38.124496   83.260864   93.016251
H   29.253788   94.308083    9.489326
H   19.171356   91.402580   88.517174
H   19.295456   39.601063   23.413136
H   97.065697   73.939972   99.180290
H    0.799431    7.833324   57.089848
H    7.826157   22.512854   26.255516
H   12.752762   42.935566   39.576241
H   37.647720   76.444283   92.165703
H   39.725639   85.444832   41.924259
H   57.963875    1.122360   44.616886
H   45.440628   54.673012    4.358056
H   11.950076    3.231574   53.183540
H   37.265240   84.923630   78.742226
H   44.464787   45.541718   98.906998
H   20.926041   70.557411   49.963737
H   86.331238   22.163052   84.377052
H   72.982574   52.538925   76.899109
H    0.706941   42.823555   50.126312
H   27.285698   13.019991   34.055851
H    1.793051   81.066498   83.576393
H   17.512827   38.376183   91.505211
H   12.872528   77.726212   26.337805
H   95.144424   53.723091   77.299271
H   49.658821   26.937298   56.105835
H   45.208378   33.207237   89.706161
H   66.717705   93.176369    5.483955
H   67.899811   76.541611    9.653786
H   18.980576    2.496455   71.566772
H   47.207573   90.041946    3.436154
H   22.449478   77.447395   12.545352
H   26.283709   84.275932   99.402138
H   90.669044   71.288696   10.317557
H    0.751355   42.398365   71.883324
H   76.235748   42.646049   27.108614
H   63.303844   15.938608   39.134106
H   99.976166   74.717552   92.396584
H   63.469345   66.579178    5.109133
H   66.098907    1.693556   61.512520
H   72.660583   19.546225    3.463279
H    4.192566   80.603226    1.122348
H   95.913261   84.395767    9.035975
H   91.492477   71.205765   86.601112
H   56.579556   60.968613   62.655552
H   51.200310    4.970126   90.411789
H   59.458927   27.672602   38.211349
H   43.064266   54.757797   20.565952
H   14.655678   72.744415   55.950996
H   40.984966   58.938354   32.966801
H   29.200668    3.284095   12.862937
H   33.686150   16.753395   54.520962
H    1.528341    5.834153   75.811005
H    0.019844    5.771640   61.732353
H   51.806549   75.413963   49.505112
H   92.586777    7.875249   22.534706
H   38.730186   17.330189   82.461082
H   61.462116   82.383316   17.819118
H   72.869667   68.660324    7.175755
H    6.451393   72.673866   96.729004
H   80.387985   76.457748   54.223736
H   85.119614   52.163372   88.685951
H   10.089336   25.651085   22.768827
H   76.571548   68.552979   74.557327
H   40.415459   81.786903   70.677628
H   74.333199   92.150620   60.781498
H   59.417213   68.485771   88.321838
H   19.787998   62.054413   85.748512
H   48.813496   40.150375   22.929794
H   91.720062    3.270912   98.444641
H   90.003426   46.324787   24.728853
H   69.244621   37.721333   84.211197
H   76.226433   15.765511   67.375336
H   45.224209   74.548119    3.696704
H   31.207531   34.266739   66.177330
H   66.927986   34.810963   88.740242
H   87.183609   62.070137   72.226158
H   35.503998   95.171890   60.649158
H   19.221991   85.774750   54.173283
H   20.728096   13.630433   36.494957
H   88.326576   57.168358   81.707176
H   42.212166   50.501396   30.349167
H    4.705577   42.998489   84.065811
H   92.525826   40.274605   27.241964
H   58.460045   95.419739   29.541191
H   87.857285   39.556038   76.100594
H    3.233030   47.239124   51.892128
H   84.668358   17.339931   67.963425
H   49.540401   74.489105   54.878571
H   93.718765   18.620380   11.529124
H   62.805492   99.573067   56.250870
H   46.476402   79.233658   62.438908
H   19.974915   44.226288   38.481934
H   57.060966   33.183365   70.902267
H   25.983683    1.597725   51.022720
H    5.308693   64.305092   11.566078
H   34.814045   15.196442   84.194588
