100
TIME:    4.412, STEP:  4412
H   18.956699   17.418335   95.106705
H   78.626961   43.944229   56.297531
H   55.592964   91.321373   71.555122
H   82.217148   50.876274   98.325569
H   55.653168   26.398760   46.076614
H   59.607952   96.428246   15.681038
H   21.737820   59.258236   35.477154
H   73.111794   70.295197    3.098043
H   45.172554   62.097580   22.366915
H   54.271782   79.733147   80.459412
H   89.861542   43.768818   14.763664
H   87.446495   44.841301   78.878273
H   62.528275   94.787239   86.623535
H   36.624168   91.476845   92.994644
H   34.168159   75.929871   38.691517
H   24.127701   25.839531   66.806580
H   69.320320   73.789413   75.030113
H   95.417213   80.144249   46.583935
H   13.986763   63.444389   95.804565
H   73.649162   12.122355   16.722055
H    2.462384   16.988461   37.494514
H   85.363083   49.940979   43.555710
H   26.837471   58.739708    6.116942
H    9.118935   89.596680   79.399857
H   71.785797   36.266113   69.123451
H   26.433935   96.224426   75.533394
H   81.627525   59.077297   87.508949
H   60.269169   62.376953   12.607703
H    7.105474   49.382961   48.614174
H   70.168991   81.642509   34.129463
H   89.694984   17.688374   60.315544
H   44.333508   30.613068   90.823128
H   81.133034   45.679070   95.264755
H   64.519043   69.389282   85.881126
H   71.100723   25.406883   93.389084
H   56.165150   30.995838    5.557193
H    2.967615   42.959457   56.113636
H   81.635536   78.211250   33.783978
H   58.842571   85.288200   16.756697
H   47.632027   99.146111   85.161560
H   33.722244    7.571686   46.290508
H   35.095718    9.870227   10.081087
H   49.243977   89.957397   20.157549
H   97.623489   86.710175   12.117085
H   73.946648   57.814491   33.657856
H   21.166836   47.068958    1.083081
H   76.203415   64.777428   67.818260
H   56.475040   40.812134   41.567467
H   93.998886   67.046844   68.479523
H   18.410458   97.885872   75.082619
H   43.208012   43.693642   99.936234
H   19.547312   54.339291   84.422302
H    0.389493   47.591003   46.627605
H   74.518883   35.219429   26.505199
H   89.504639   45.245533   37.873203
H   99.086624    7.892727   42.431915
H   75.952744   62.240318   75.605324
H   97.529190   60.228752   99.911240
H   38.241440   25.187038   72.772316
H   67.871094   66.910156   38.122810
H   38.013428   73.392479   70.400734
H   42.324120   86.875809   95.724182
H   73.591957    6.215804   30.926384
H   46.004021   65.797211    7.352070
H    7.441455    8.464516    6.439159
H   30.308846   22.939095    7.055452
H   33.585953    0.898071   80.073288
H   75.598686   69.864151   77.121712
H   76.796402   32.768143   83.519775
H   19.773836   70.054688   92.442719
H   81.931145   95.207062    9.222023
H   10.177980    5.099188   79.648308
H   19.320868    0.072353   48.626274
H   33.084438   70.180565   41.007530
H   74.890511   34.929287   35.857998
H   29.960062   90.340538   99.058517
H   67.536850   44.143803   69.077309
H   39.264111   62.232006   58.099533
H   73.083107   40.559292   66.911522
H   83.152313   68.668205   40.823418
H   97.208969   74.925827   43.683422
H   72.363533   73.041275   17.848841
H   96.942406   80.903503   50.121113
H   53.687759   89.703194   60.447945
H   37.502060   72.912483   20.058365
H   49.751438   71.116371   48.165939
H   61.822227   82.564575   33.924805
H   26.973253   52.058784   49.860115
H   47.245712   48.518791   92.106331
H   76.259018   27.753853   81.935059
H    4.579868   11.667549   26.635172
H    4.740153   27.305664   17.595385
H   68.271278   59.900345   60.191265
H   73.664902   80.853714   24.297518
H   80.309425   54.530312   17.469975
H   58.334702   21.506271   39.563530
H   12.398774   20.876049   83.450607
H   23.060797   53.803223   85.435493
H   98.535767   55.868694   75.486168
H   13.258036   65.411385   72.718857
