100
TIME:    8.906, STEP:  8906
H   15.045844    5.299036   90.992325
H   54.514053   87.466934   39.656834
H   32.856861   14.637294   18.797401
H   82.971451   65.723259   51.995346
H   15.393747   86.612427   24.226925
H   89.910400   91.559563   60.737785
H   86.206444   62.715118   86.913963
H   19.892258   59.083118   90.474159
H   34.701393   30.017101   39.486271
H   31.505583   44.261967   56.426643
H   71.840607   24.593781   81.878136
H   15.923050   70.102394   58.990120
H   75.843552   22.919624   40.053581
H   14.109849   77.625099   34.990841
H   88.778267   74.505013   22.611580
H   43.432800   32.777733   93.764709
H    7.939453   71.032463   84.136665
H   91.512955   61.472984   90.800858
H   83.979706   51.972393   32.564213
H   52.570606   16.685186   22.694452
H   35.782051   69.597565   15.520521
H   16.207239   55.906830   60.850113
H   66.834267   22.194902   77.538956
H   91.562012   43.369843   45.637440
H   11.055263   79.870255    2.311673
H    5.613888   63.554611   52.788334
H   94.104454   72.266556   76.677292
H   81.078979   72.141678   61.159828
H    4.823070   57.113888   36.179893
H   42.488060   70.415878   91.390411
H   66.564827   20.674274    4.764702
H   28.087452    6.450287   74.791054
H   97.682877   16.877048    0.119766
H   54.402023   57.540924   96.556587
H   59.310005   85.360847   66.902252
H   46.820606   82.988251   91.427559
H   34.000526   78.377693   10.223245
H   95.891441   95.967110   50.912033
H   69.148613   87.371544   81.255020
H   24.348131   78.433815   38.740120
H   26.589125   61.766273   52.165981
H   49.664764   76.528046   34.628223
H   87.932220   16.912495   44.762096
H   10.666874   62.135544   51.515079
H   84.126068   80.515038   18.221956
H   63.163788   32.779125   19.342924
H   11.320336    9.176523   10.957172
H   56.731197   87.098907   19.629948
H   25.361923   94.855934   89.209900
H   12.720892   66.289604   60.826366
H   42.890064    9.826492   47.311493
H   37.961102   37.328159   89.412422
H   93.602425   73.648743   85.626297
H   70.446167   61.899300   24.812946
H   31.686394   39.084137   76.091797
H    4.688171    3.165476   89.445526
H   60.852234   32.567787    3.022089
H   62.896667   35.825752   84.156395
H   92.675316   15.078828   27.771605
H   71.313698   12.332303   10.302757
H   21.497938   64.399048   20.014660
H   82.826561   45.046280   92.386253
H   78.689606   99.553123   22.759308
H   54.599789   90.277771   85.341507
H   85.817764   49.537037   24.945913
H   54.239204   99.530083   72.776588
H   73.023331   56.263790   97.043076
H   65.167404   26.881504   91.960907
H    0.774511    9.857964    1.662942
H   10.901229   95.970596   82.954132
H   39.221699   89.435158   55.321236
H   39.879738   55.886131    8.852592
H   26.303940   77.782768   33.400005
H   34.153011   85.758949   73.989479
H   91.482635   41.428837   76.560593
H   36.201256   78.364616   96.669022
H   75.637527   54.964291   48.693024
H   50.394321   68.384727    6.293732
H   88.588722   27.358990   17.047342
H   62.766685   23.867525   53.661339
H   85.165138   21.419016   12.282771
H    9.595671    2.229448   41.927895
H   81.198753   56.058018   78.105797
H   62.866417   74.264870   49.991215
H   18.682907   91.797104   84.416901
H   46.321331   36.185745   60.242889
H   61.966450   55.813408   48.215675
H   99.262016   92.407509    3.236540
H   40.510502   98.300957   55.351204
H   78.929184   42.860107   42.584373
H   88.492882   54.327404   21.540550
H   37.252712   65.295715    3.224437
H   56.345249   94.738823    7.719234
H    7.996054   53.489613   27.315676
H    2.610031   51.985104   20.736376
H   29.520706   44.043274    7.442440
H   55.685814   78.775902   24.996384
H   21.086672   27.129673    0.091616
H   84.451836   75.260460   99.065727
H   92.397781   50.090305   39.797077
