100
TIME:    1.223, STEP:  1223
H   34.615395    9.865980   98.026321
H   67.250267   71.055489   55.146694
H    0.777529   61.891506    8.979843
H   81.681885   82.261986   73.127556
H   84.216751   70.786369   32.543861
H    9.051586   99.883125   99.862938
H   88.873039   43.921001   86.092964
H   23.760910   94.407486   95.901711
H   23.564323   68.706909   23.103209
H   41.417870   33.943825   55.583191
H   86.494553   15.452300   21.944258
H    9.160404   84.993492    5.874947
H   65.465927   87.714058    3.573103
H   94.526161    1.306531   50.311687
H   95.376366   60.781345   91.983536
H   52.350327    4.763332   31.520981
H   25.739441   62.875931   84.706810
H   27.279213   35.226303   57.147263
H   64.308510   29.659678   27.795023
H   59.566338   79.842392   99.600212
H   91.702087   34.464012   24.050297
H   79.616997   45.714157   15.118508
H   69.415215   84.675636   97.357758
H    5.411594   51.349705   16.243263
H   85.842888   89.180336   45.585930
H   41.051205   91.167908   74.540466
H   56.618896   91.638199   24.235304
H   29.348190   13.525102    7.197986
H   37.764038   60.052036   99.361259
H   47.888149   60.570694   80.613792
H   64.211098   31.717073   12.634502
H   42.978062   18.723267   86.044853
H   56.505123   79.001961    7.974453
H   29.776558   61.642067   20.228155
H   50.372246   66.470711   99.201920
H   78.889771   80.557022   16.436163
H   97.100945   59.747414    4.832978
H   13.443264   36.569782    8.745886
H   95.738174   54.400551   24.907959
H   48.000160   97.689629   34.256954
H   51.661903   98.147118   71.157883
H   21.704918   66.748558   60.258701
H   21.775251   70.833908   89.811897
H    1.263088   33.267197    0.312862
H   50.568817   83.637131   60.765411
H   62.309101   86.243629   88.137764
H   48.993824   91.714172   38.073677
H   56.304729    7.975347   44.250225
H    0.782100   31.160362   95.687393
H   51.540012   49.364239   98.127525
H   43.451313   51.570961   66.311981
H   64.568367   50.254192   93.773514
H   34.249123   29.100098   31.839359
H   48.369251   87.250725   85.784683
H   43.397346   65.720612   10.784119
H   95.096481   11.246632   50.992996
H   73.783737   54.257896   72.304893
H   34.991150   61.390480   82.053421
H   86.732475   90.442795   17.592602
H   78.312820   21.791449   28.824547
H   36.848919   21.696991   19.041512
H   55.504486   16.561844   40.018402
H   57.189209   23.754261   49.655617
H   27.020090   48.447304   93.934624
H   80.865822   63.166264    9.456433
H   26.214333   81.474159   18.498655
H   89.444656   90.645264   26.109287
H   95.884651   87.481369   24.669073
H   17.855568   61.909348   83.528175
H   55.160126    9.655882   99.157837
H   83.196068   12.187845   47.479465
H   73.124466   10.936468   46.164330
H   27.250271   57.810200   30.389095
H    3.272839   71.986801   30.522072
H   21.138027   30.383883   94.109184
H   54.573627   85.955711   13.637656
H   77.995903   20.545263   12.674593
H   89.439087   70.752892   81.982025
H   20.173716   49.919773   31.325344
H   39.547379   42.347206   15.558513
H   34.815113   41.934155   53.084240
H   33.085575   52.214676   84.510696
H   95.180397   27.669355   46.384525
H   34.301464   16.815287   51.722481
H   92.779007   72.385666   29.196220
H   23.143208   53.978992   26.712242
H   48.836128   14.430870   81.860397
H   75.643051    7.378311   83.029320
H   81.062935   26.077196   18.193874
H   58.208481   58.959618   67.934959
H   74.072731   39.470112   59.289257
H   68.776573   87.487648   56.824081
H   63.753944   64.273849   13.529348
H   65.436317   87.416847    9.279683
H   35.448170   40.181046   44.189171
H   94.936340   47.435722    4.279284
H   65.526352   37.865780   66.853226
H   11.355588   26.650787   36.468483
H   50.451073   42.122166   42.605808
H   15.193863   47.290058   79.893379
