100
TIME:    4.170, STEP:  4170
H   35.321686   39.611023   95.328262
H   85.310616   30.829866   41.037750
H   51.433220   73.910637   74.394753
H   82.176529   60.846367   11.590589
H   57.820740    7.001391   52.638412
H   63.361507   96.690422   91.714989
H   34.420895   42.916515   16.552439
H   92.132515   49.359295   25.318157
H   51.121376   85.364822   37.600262
H   60.885277   76.258385   70.984131
H   12.371780   34.031361   38.074055
H   96.681755   32.711021   96.104378
H   77.970840    9.421707   10.669998
H   48.606743   92.222755   74.579514
H   31.224892   97.546509   50.325138
H   33.858521   47.005669   86.894470
H   88.780464   57.782597   52.999901
H   90.247032   91.913414   54.975246
H   10.217514   53.291512   83.053925
H   80.170341   17.261568    0.245657
H   16.822998   41.081005   44.061852
H   62.162308   49.619720   64.164261
H   30.068520   60.707878   13.041080
H   31.603340   86.694275   97.371872
H   80.441315   55.458542   67.336220
H   27.537107    3.377829   98.291054
H    2.494680   69.136917   82.708534
H   80.689056   51.081207    4.608088
H    1.843066   27.426792   60.053932
H   60.889420   87.631950   14.891697
H   80.171700   95.987892   79.461815
H   29.053419   37.298569   13.226234
H   64.087868   63.385216   73.463486
H   54.294159   91.567200   96.076469
H   77.116013   43.700157   78.651810
H   35.128254   12.041487    6.318566
H   79.755905   51.821762   37.044910
H   91.638863   82.638710   16.707424
H   69.057312   90.561272   40.207970
H   70.425285   21.801586   66.122375
H   50.261520   99.268478   40.589092
H   56.845291   99.008789   98.712021
H   47.159489   88.506195    2.677857
H   13.076448   82.655670   88.455200
H   94.939232   67.362427   12.948756
H   24.288952   42.453175    0.099311
H   74.312790   51.616905   65.495598
H   56.462116   38.319611   26.593864
H   86.923813   87.090424   78.132050
H   13.334941   94.204323   92.009621
H   43.226475   67.056892   97.384628
H    7.787218   76.794952    0.308016
H   95.371101   46.187805   60.683590
H   80.124290   39.168694   15.827044
H    8.772650   24.036928   35.814564
H   98.783829    8.147421   50.670166
H   60.610287   69.223076   52.589180
H   15.548833   83.082420    6.144926
H   19.156096   14.961279   91.349922
H   83.841705   48.308834   45.005867
H   22.747549   84.647606   89.270058
H   50.913170   89.128311    6.673774
H   57.162693   22.729881   47.521049
H   29.385500   64.478943   13.923100
H   97.836052   27.792648   83.902794
H   45.175362   34.969673   92.746750
H   53.001785   92.530701   68.389816
H   92.315208   56.024185   65.552711
H   64.736282   50.156723   98.696472
H   14.870951   57.882858   92.952301
H   89.615501   11.672817   12.125351
H   30.131878   13.131030   61.930866
H   35.100204   12.042004   54.831734
H   38.412899   85.493889   55.386620
H   63.221935   34.584026   17.512297
H   24.238337   74.831505   15.341782
H   45.564171   65.119675   64.797554
H   27.894512   78.055122   44.734070
H   61.477585   41.270123   64.212212
H   95.020416   81.847191   61.671989
H   92.475021   72.422226   29.219580
H   54.205887   71.460831   38.085083
H   81.633064   76.862976   27.071911
H   37.039551   68.994942   82.551712
H   49.285233   88.048561   43.517624
H   55.321766   62.227852   31.360794
H   45.659599    0.159941   22.385344
H   23.078455   71.433998   52.376640
H   42.223740   61.993187   94.085579
H   97.654099   37.711021   73.283234
H   94.676147   98.600273   21.524576
H   86.834198    9.106728   12.984184
H   52.758553   52.638794   41.477032
H   50.274715   66.175522    7.980723
H   84.493172   76.206841   11.909461
H   38.346512   31.061867   52.063072
H   31.606983    6.988379   97.368118
H   22.172720   51.742737   89.309059
H   10.063988   54.825527   95.754997
H   98.226692   71.622383   96.030411
