100
TIME:    3.141, STEP:  3141
H    4.909616   33.975548   96.270340
H   13.897552   75.045746   76.133347
H   33.745712   99.880707   86.469048
H   82.003815    3.240156   67.995667
H   67.037399   24.522503   80.539612
H   79.314339   97.805214   89.809593
H   88.350533   73.433784   36.083229
H   73.009888   60.337345   19.797375
H   76.416161   84.298981    2.371511
H   89.006294   61.483467   30.688120
H    8.086853   92.627655   37.192570
H   35.957848   81.132874   69.349281
H   43.463074   71.672470   12.939428
H   99.557442   95.394417   96.270775
H   18.707035   89.460770   99.786385
H   75.231430   37.005829   72.310890
H   71.526588   89.723709   59.325970
H   68.265221   41.953911   90.650574
H   94.189461   10.120807   28.842447
H    7.896584   39.112568   30.186487
H   77.885330   43.521286   71.988846
H   63.511078   48.253708   51.793106
H   43.807152   69.076668   42.483337
H   27.208603   74.353058   73.796318
H   17.244122   37.062561   59.736794
H   32.256664   34.018391   94.765587
H   91.226837   11.908734   62.296200
H   67.512505    3.050959   70.598289
H   79.468597   34.067734    8.695967
H   21.433121   13.100438   33.088593
H   39.673344    3.715575   60.873024
H   64.081856   65.726234    8.485924
H   91.605072   38.671349   80.763039
H   10.815598   85.868904   39.424988
H    2.693695   21.484772   15.993958
H   45.652248   31.226557    9.842786
H   81.061470   89.504868   55.963802
H   34.168083    1.465120   44.092571
H   12.488921   12.980444   39.925690
H   67.345459   18.133112   85.161842
H   20.586573   63.956280   16.346296
H   49.325981   52.829384   50.367737
H   38.296108   82.335587   28.351677
H   78.785233   65.415649   87.844200
H   84.196861    7.964779   24.895002
H   37.564396   22.826557   95.922615
H   66.273727   95.655365   55.612823
H   56.407162   27.722822   62.925209
H   56.842003   72.311211   19.177786
H   91.756523   78.550133   63.977451
H   43.304981   66.400223   86.535034
H   57.779209   72.278549   67.862297
H   74.033043   40.221313   20.444523
H    3.957554   55.961227   70.420258
H   90.701828   33.853394   27.063307
H   97.496323    9.230810   85.699753
H   95.378227   98.914223   54.722710
H   92.171135   80.258774   32.651810
H   38.000465   71.483551   70.347908
H   51.744278   69.216629   74.273079
H   57.837502   32.501209   69.497787
H   87.434380   98.706100   53.235596
H   87.302986   92.946587   18.082687
H   58.727371   58.880760   41.863552
H   56.995640    9.977101   88.076485
H    8.388611   86.124489   31.904243
H   35.560646   56.953121   18.709867
H   63.395409   97.173706   16.360563
H   13.448217   24.094093   63.236027
H   94.022522    6.125167   95.119080
H   22.291611   81.685905   24.470493
H   14.977653   47.281509   86.591248
H    2.191946   62.937748   81.212639
H   61.068829   50.611450   16.529579
H   13.612336   33.115955   39.507481
H   99.910255    8.880884   84.579895
H   52.137928   54.306412   46.599751
H   79.550217   45.338680   87.905365
H   12.136113   44.292622   52.726860
H   45.484840   37.888203   50.321213
H   72.345963   61.776745   67.718994
H   76.997498   64.740677   24.129255
H   16.529776   59.685760   29.064518
H   66.244751   80.941010   76.534576
H   99.388062   52.414097   43.267647
H   79.002197   24.427773   59.903790
H   76.935005   74.976631   73.318283
H    6.517515   53.818283   63.077072
H   20.867935   19.286402    2.502296
H   88.631866   80.046585   36.500969
H   52.565277   43.036358   99.793900
H   10.694090   31.726763   93.374886
H   86.798874   21.762197   61.902794
H   50.817966    3.757015   38.600143
H    2.283145   68.378815   88.264305
H   53.355316   71.696724    5.212141
H   13.284755   47.936047   56.547890
H   18.396559   42.981415    5.777674
H   59.083427   50.389912   81.945229
H   34.310375   98.031960   95.156799
