200
TIME:    0.139, STEP:   139
H    6.367618   62.810192   13.612539
H   27.064068   31.403605   85.796982
H   20.254637   64.717400   40.373405
H   14.437984   75.793251   47.140820
H   16.282511   81.169418   55.110638
H   92.904297   55.556293   68.539238
H    1.895946   55.375793   47.696430
H    0.625267   84.524963   28.657402
H   83.326736   89.020393   50.183311
H   14.416607   76.313652    0.056292
H    8.673236   92.436592   89.769974
H   30.360153   39.327007    7.929786
H    8.695254   83.655907   65.431175
H    9.177742   52.780811   37.398891
H   24.498222   71.167084   43.227100
H   32.244347   30.127823   56.501789
H   79.456085    2.988214   20.335756
H   38.960575   78.311684   45.318489
H   61.664974   33.358387   40.997021
H   89.734924   81.091698   41.385983
H   56.872971   71.716423   30.467739
H   92.277550   44.953819   74.466835
H   98.029694   63.275810   51.559647
H    6.480783   87.156898   91.904358
H   98.856491    8.641818   49.014301
H   18.744699   57.854263   10.292341
H   96.940056   56.770161   45.020966
H   92.192413   65.962967    0.465516
H    6.814681   59.599678   38.929775
H   97.613503   18.058685    2.119577
H   13.493356   47.229618   16.071329
H   33.762703   61.139145   91.116501
H   29.563690    6.812245   71.945473
H   99.769279   63.467728   36.524925
H   52.835316   93.974411   34.987347
H   36.360447   52.224796   78.318314
H   83.365585   76.608940   85.196693
H   37.910889   42.142700   19.708597
H   56.808281   50.017281   42.186581
H   91.051353   40.103825   67.641693
H   80.474258    9.941832   98.171684
H    8.312120   45.224796   42.825954
H   78.520401   90.102112   46.577923
H   37.506271   58.328899   15.136102
H   25.326206   73.213646   40.719124
H   42.481106   16.467020   41.589432
H   78.070847   31.160389   93.964394
H   92.574707   65.552147   51.278580
H   83.174355   32.584972   61.093513
H   65.731567   17.345713    9.985494
H   80.610870   71.774490   31.871452
H   24.999052   33.959576   61.369793
H   49.453190   97.312637    6.606843
H   23.909781   80.052307   80.207489
H   81.474014   78.631142   94.039795
H    6.600403   74.838226   75.340942
H    5.718725   16.363258   50.738010
H   66.305222   56.231472    7.126365
H   30.312363   72.526382    4.683686
H   45.439270   96.556313   68.861320
H   50.746624   17.346943   45.187397
H   88.122002   16.185621   48.292145
H   68.664787   23.114182   88.292374
H   21.678904   65.008240    1.412482
H   69.724785   74.573380   13.799495
H   42.701580   12.637279   31.047836
H   89.947853   25.292418   83.748421
H   97.907021   91.220299   85.271927
H   12.929984    4.488378   63.258179
H   45.818359   39.869621   50.987988
H   58.509472   74.845253   70.579727
H   34.978882   26.476635   45.471825
H   74.288223   23.916988    2.877621
H    4.574938   11.184701   57.632523
H   77.915207   99.236534   72.361732
H   50.760864   22.642410   63.537464
H   95.854477   26.190207   73.574211
H   30.296160    4.130783   51.421227
H   10.762688   25.193497   37.175419
H   69.797966   91.230232   99.051483
H   39.081425   31.809052    2.632812
H   22.195478   70.406479   90.979576
H   11.393763   12.558415   93.234848
H   27.967670   58.556938   90.559662
H   42.504848   98.255844   60.644474
H   21.821695   89.308151   29.885319
H   31.328512    2.573647    1.539780
H   76.171410   22.303371    7.632694
H   62.598545   71.799461   76.798767
H   23.950008   81.520065   55.976665
H   45.476654   34.020897   81.203728
H   84.758957   87.649307   96.164017
H   42.461746   18.001192   98.606361
H   64.556931   98.062256   66.331390
H   22.565649   58.292419   63.733246
H   73.454720   25.451145   33.810432
H   77.935524   17.772547   93.979362
H    9.671246   26.869253   47.637295
H   39.306496   70.789787   52.523319
H   65.448303   96.286072   27.225748
H    5.360029   77.633850   64.183846
H   86.816551   75.128532   66.421722
H   21.085760   40.860977   29.091352
H   17.022667   67.753006   86.151558
H   25.472626   28.800037   21.813004
H   83.424622   31.717815   48.619366
H   60.873844   28.842680   56.729279
H   65.346077   30.396488   22.647041
H   70.229797   41.364559   94.248726
H    1.122271   29.468603    5.042944
H   45.865696   96.944458    0.724790
H   81.938454   60.805119   89.360703
H   58.848240   79.102623   96.132263
H   63.566307   21.574781   77.558502
H   67.220726   77.762802   30.314001
H   18.160313    8.752058   74.378014
H   36.727535    7.020496   83.002670
H   41.283543   22.025154   35.997398
H   15.026643   53.921642   88.531403
H   68.117233   44.659054   45.575062
H   39.500435   21.088268   90.829422
H   22.647049   29.872646   45.217236
H   29.801397   26.082272   21.032986
H    5.565376   70.953598   22.288076
H   79.938545   11.452785   96.153549
H   44.022076   59.588783   27.481503
H   97.897148   48.718338   74.955383
H   77.637894   86.777824   34.149555
H   91.224792   56.139633   87.191956
H   62.849770   24.628061   64.780930
H   44.531876   88.791962   99.551582
H   85.576736   85.049637    6.945179
H   92.767555   77.680817   96.623848
H    5.873125   10.413363   48.463779
H   99.436607    3.196340   61.058022
H   65.048134    1.756474   85.169571
H   68.725502   86.307152   50.310699
H   90.356850   67.374092   84.794220
H   43.673264   42.921181   71.573975
H   43.393234   13.934015   98.263901
H   45.617435   66.039085   11.647451
H   61.887909   37.942036   43.892418
H   58.252293   54.901993    2.790865
H   62.341118   30.183851   76.450752
H   35.554462   73.116737   45.765888
H   42.239475   60.235401   34.683414
H   42.342491   97.220100   48.005074
H   45.410309   77.178299   69.404442
H   62.485203   69.008835   98.948509
H    6.230584   87.554146   93.775040
H   79.780251   59.594662   52.106674
H   29.535866    9.904346   51.317440
H   71.483757   35.615147    7.010325
H    7.239967   98.824257   78.448395
H    9.607506   51.211716   58.925808
H   60.503815   43.278469   50.953640
H   58.254040   57.854866   79.559860
H   44.610111   38.280403    7.357895
H   17.004370    2.114897    6.350410
H   64.811752   61.064819   74.365112
H   52.963840   88.512665   86.101318
H   48.346188   23.579710   36.418957
H   60.871807   38.973362   37.274048
H    7.567376   17.212585   75.520142
H   59.921249   18.661257    8.832149
H   10.173558   67.652519   62.853935
H   76.639008   99.200569   51.150993
H   23.543983   26.337276   43.836231
H   92.700577   28.498665   37.095425
H   21.863796   11.221903   91.540710
H   81.294495    4.432695   35.984550
H   49.652077   69.198242   57.147961
H   35.721478   81.794083   93.265884
H   72.466484   76.965408   71.904526
H   76.132172   95.796326    3.980148
H   97.788933   47.115288   23.189846
H   36.455315   49.766056   82.682938
H    0.834865    9.104538   63.588726
H   78.184517   23.727488   70.316124
H   91.105026   53.371681   84.960220
H   83.261787   81.570053   44.067608
H   17.190475   29.982754   65.928993
H   70.284760   90.270554    4.071030
H   49.281715   25.033283   73.474602
H   84.216850   92.715065   78.812943
H   97.145988   35.371521   83.448708
H   27.835342    6.254639   97.027420
H   95.273323   62.946449   21.992525
H    9.543264   60.723007   65.389099
H   47.776920   58.822727   64.426956
H   42.995354   34.365917   80.022713
H   48.480892   82.184433   25.910852
H    1.857030   15.121198   55.492580
H   36.868168   59.499851   31.277756
H   88.360626   58.766632   22.146666
H   75.081558   10.135612   30.950121
H    8.789922   82.805397    0.057755
H   31.844780   99.413513   49.815121
H   13.260168   11.329288   82.534142
H    9.061200   38.414452   99.152000
