100
TIME:    4.337, STEP:  4337
H   24.028435   24.296234   95.175369
H   80.698341   39.879860   51.568260
H   54.303787   85.925484   72.435173
H   82.204559   53.966179    2.436518
H   56.324936   20.387178   48.110229
H   60.771244   96.509499    8.253393
H   25.668579   54.193653   29.612055
H   79.006645   63.806416    9.984383
H   47.016197   69.308502   27.087889
H   56.321419   78.656258   77.522858
H   96.837860   40.751011   21.988033
H   90.308662   41.081917   84.216942
H   67.314194   99.322533   94.075928
H   40.337776   91.708015   87.287476
H   33.256065   82.629242   42.296978
H   27.143505   32.399284   73.032166
H   75.351357   68.828400   68.202568
H   93.814537   83.792244   49.184422
H   12.818607   60.297836   91.852921
H   75.670189   13.715086   11.615702
H    6.912979   24.455158   39.529846
H   78.172760   49.841415   49.942657
H   27.838829   59.349678    8.262853
H   16.087242   88.697174   84.969696
H   74.468292   42.214180   68.569557
H   26.775827   98.441147   82.586388
H   88.094582   62.195240   86.021217
H   66.597412   58.876205   10.128484
H    5.474547   42.578304   52.159554
H   67.293091   83.498741   28.167274
H   86.743553   10.963075   66.249306
H   39.597942   32.685020   97.766258
H   75.850441   51.166512   88.508163
H   61.350174   76.262604   89.040840
H   72.964966   31.076286   88.821747
H   49.645451   25.121586    5.793156
H   95.774002   45.706039   50.203907
H   84.735741   79.583397   28.491657
H   62.008579   86.922417   24.024553
H   54.695892    6.167432   79.260986
H   38.848053    4.998411   44.523540
H   41.836288    6.504058    6.557623
H   48.597958   89.507645   14.740234
H    2.412723   85.453613    4.783997
H   80.452614   60.773361   27.239798
H   22.134434   45.638447    0.778192
H   75.617477   60.698753   67.098427
H   56.471035   40.039658   36.926888
H   91.806198   73.258698   71.471008
H   16.837467   96.744896   80.328590
H   43.213734   50.934319   99.145447
H   15.902655   61.299015   89.345551
H   98.834129   47.156128   50.983799
H   76.256096   36.443375   23.195854
H   95.476166   38.672619   37.235195
H   98.992783    7.971620   44.985092
H   71.197723   64.404396   68.472221
H    3.113843   67.311501    1.843176
H   32.326561   22.017883   78.529839
H   72.820663   61.145481   40.255989
H   33.282440   76.880638   76.248665
H   44.986015   87.573898   99.117355
H   68.500481   11.333745   36.069359
H   40.853607   65.388657    9.388546
H    4.464489   14.454639   99.454567
H   34.916237   26.667580    2.621010
H   39.603256   98.304962   76.452377
H   80.779427   65.574905   73.536278
H   73.058762   38.157166   88.223297
H   18.254347   66.282715   92.600647
H   84.312660    0.309990   10.121815
H   16.361946    7.588350   74.157433
H   24.211214    3.781956   50.549454
H   34.735821   74.926430   45.463860
H   71.274178   34.822285   30.172480
H   28.186800   85.534019    4.105042
H   60.727341   50.644619   67.750938
H   35.740475   67.136009   53.957344
H   69.486229   40.779591   66.074959
H   86.830444   72.752602   47.284752
H   95.741837   74.149918   39.200771
H   66.736473   72.551468   24.120489
H   92.197975   79.650726   42.977886
H   48.528191   83.285347   67.298080
H   41.153870   77.603416   27.328796
H   51.477779   68.361778   42.957733
H   56.813148   88.017685   30.348524
H   25.766188   58.063499   50.640030
H   45.689316   52.694740   92.719734
H   82.889725   30.839752   79.253708
H    1.510494    7.617778   25.051310
H   99.190506   21.665443   16.166304
H   63.463615   57.649864   54.391399
H   66.416214   76.304688   19.240660
H   81.606041   61.248566   15.746758
H   52.140015   24.467716   43.437355
H   18.351791   16.571926   87.763885
H   22.785566   53.164642   86.635979
H    2.108570   55.545399   81.767830
H    8.599575   67.336281   79.943512
