100
TIME:    3.706, STEP:  3706
H   66.700592   82.162292   95.753067
H   98.180382    5.677421   11.773121
H   43.457512   40.528069   79.839333
H   82.098648   79.962578   37.024502
H   61.976746   69.809746   65.219711
H   70.555183   97.193108   45.763878
H   58.737423   11.583754   80.266960
H   28.602005    9.218642   67.922203
H   62.527382   29.976700   66.808784
H   73.565697   69.596031   52.814468
H   55.531937   15.361225   82.768532
H   14.391876    9.453217   29.131464
H    7.524314   37.489349   56.782074
H   71.581596   93.652931   39.268688
H   25.580299   38.992172   72.629555
H   52.514526   87.588676   25.411173
H   26.092781   27.093998   10.760153
H   80.334923   14.478036   71.063171
H    2.990831   33.824837   58.607197
H   92.673759   27.115267   68.654350
H   44.357422   87.273193   56.653770
H   17.678177   49.003754    3.678147
H   36.263588   64.481560   26.317799
H   74.713936   81.129333   31.833553
H   97.037018   92.254532   63.909462
H   29.664045   17.183569   41.807266
H   42.506443   88.423050   73.504433
H   19.840624   29.423248   89.271843
H   91.753830   85.329483   81.988014
H   43.097183   99.115837   78.005127
H   61.911770   54.379093   16.172020
H   99.756447   50.117050   56.181068
H   31.402731   97.334190   31.662703
H   34.689423   34.089882   15.623295
H   88.649460   78.774864   50.396919
H   94.782494   75.611725    7.894367
H   35.252823   68.813950    0.483747
H   10.817281   91.127724   83.963539
H   88.640808    0.671503   85.173546
H   14.130009   65.240891   29.614271
H   81.973190   83.345383   29.657454
H   98.546951   78.186279   76.912460
H   43.162785   85.723724   69.160942
H   42.705444   74.881744   43.086838
H   35.187786   85.671509   73.243103
H   30.275158   33.603077   98.215858
H   70.687790   26.383114   61.039879
H   56.437336   33.540558   97.884239
H   73.358383   25.518799   96.639374
H    3.603374   87.145485   24.462109
H   43.261875   11.852993   92.492294
H   85.237778   19.849804   30.769962
H   85.749275   43.497375   87.630806
H   90.871849   46.740837   95.352814
H   45.716324   83.371033   31.867479
H   98.203262    8.635946   66.465820
H   31.196100   82.611504    8.458900
H   50.099602   26.901863   18.097137
H   82.561012   95.355698   26.971142
H   14.461785   12.642942   58.203133
H   93.477608    6.226918   25.447147
H   67.381432   93.447159   27.669380
H   25.660242   54.392509   79.338921
H   97.523430   61.954224   26.522099
H   79.420769   64.853035   40.693073
H   73.679756   58.036568   65.311447
H   90.228836   76.487244   45.988445
H   24.367165   29.487886   43.370831
H   41.609322   83.496811   27.798519
H    5.470377   34.543381   93.929352
H    4.349405   43.243904   17.692062
H   68.389572   28.530365   27.957321
H   65.353378   34.992077   66.728996
H   48.629452   14.855991   82.956444
H   40.852428   33.922039   82.337685
H   13.267976   45.092926   46.562313
H    3.435321    5.334770   56.591740
H    6.094950    8.393839   19.107729
H   39.228439   42.633038   59.033279
H   17.776253    7.116516    1.646088
H   83.398361   67.621933    1.488241
H   19.389603   68.430557   76.883911
H   52.277645   69.117371   82.878143
H    5.117529   29.289742   24.931244
H   71.877762   17.071423   88.497360
H   66.001404   45.182564   99.138947
H   14.670095   33.896538    0.259589
H   15.610743    8.582941   57.201714
H   32.594833   87.828392   97.880501
H   38.678356   56.802452   56.696167
H   75.687378   73.543877   11.725747
H   52.501717   74.215385    4.142244
H   23.015678   38.715820    5.595164
H    5.426143   38.028946   76.694420
H   92.514900   17.768337    1.247748
H    0.021957   49.385017   76.029137
H   68.437531   80.360435   24.053999
H   20.469961   47.792053   96.736061
H   32.167992   52.825405   34.620697
H   69.403694   83.531075   40.729218
