100
TIME:    9.643, STEP:  9643
H   65.205231   37.712379   90.317581
H   34.159286   27.403942   86.127129
H   45.525173   67.659981   10.145674
H   83.095154   35.359795   11.596337
H    8.789694   45.685959    4.245251
H   78.484741   90.761116   33.724190
H   47.579762   12.478984   44.548336
H   61.965515   22.844234   22.805191
H   16.584526   59.156830   93.094704
H   11.372919   54.844196   85.283180
H    3.286607   54.248062   10.884695
H   87.794304    7.044313    6.530147
H   28.847656   78.310219   66.812073
H   77.618011   75.353462   91.076195
H   97.729866    8.672523   87.168480
H   13.798580   68.316879   32.587952
H   48.674355   19.780785   51.228683
H    7.276938   25.610359   65.250565
H   95.461594   82.889084   71.393494
H   32.716274    1.033956   72.872887
H   92.046936   96.226448   95.515457
H   86.864151   56.885208   98.087784
H   56.994255   16.203741   56.453217
H   23.083782   52.186493   90.901123
H   84.695908   21.422112    7.751903
H    2.137364   41.827866   83.432884
H   30.551952   41.629086   91.296738
H   18.893595    6.542348   85.518730
H   20.849072   23.980291    1.342974
H   70.748573   52.175308   49.979195
H   95.567558   86.762207   46.455627
H   74.622269   86.085831    6.563240
H   49.598091   62.954575   66.514549
H   85.541443   89.999352   65.507133
H   40.968224   29.559547   11.740161
H   10.887037   40.715000   89.110939
H    4.688553   51.387947   68.296036
H   65.426765   82.483482    2.921836
H   38.038235   71.312645    9.834278
H   54.929996    9.436963   96.725540
H   76.220886   87.057419   69.529381
H   87.554115   79.419235   72.249504
H   94.274811   21.334877   97.997337
H   63.613514   74.506691   23.574909
H   20.192755   51.435001   81.288925
H   53.655525   46.836285   22.337099
H   17.082630   49.260319   18.034548
H   56.776180   94.689774   65.231369
H   46.903114   33.816906   59.812767
H   28.189688   77.512840    9.293877
H   44.975559   38.835106   51.799957
H   73.778748   68.941071   41.033302
H    8.887749   77.922119   42.822380
H   53.378654   49.871994   57.334969
H   73.004768    3.670751   82.355667
H    5.606104    2.390224   64.356308
H    7.577139   11.301805   73.116966
H    8.018542   66.224724   65.173607
H   50.803005   46.222343   71.192970
H   22.680706   68.982162   89.340736
H   67.992279   30.127474   62.558125
H   56.668999   38.186386   59.041832
H   28.728458   49.269623   72.224411
H    5.206962   94.292496   65.335358
H   15.069385   90.672249   93.578880
H    8.965117   62.891502   16.354273
H   13.892433   81.744904   32.626965
H   14.257947   69.030830   27.193771
H   37.508209   56.901855   55.441799
H   25.869293   32.987125   81.390976
H   15.815651   39.287685   46.482094
H   79.189110   31.415428   62.872463
H   78.250595   41.327618   14.501560
H   17.931049   39.114674   30.198732
H   26.983271   42.514050   32.440235
H   53.626511   25.598225   47.077286
H   42.573189   91.173752   61.766182
H   85.017708   20.196785   46.997673
H   23.930754   25.194187   25.273592
H   26.623337   83.719032   90.168251
H   99.593407   29.043619   56.332405
H   64.897606    7.013803   80.270012
H   27.814081   68.383339   48.294170
H   13.572522   37.331985   82.678215
H   82.797791   45.691856   12.973483
H   29.357151   63.259834   11.422486
H   11.189089    2.227219   83.358574
H   11.114079   33.434914   95.598404
H   55.804691   57.265297   49.323494
H   13.767840   12.536003   68.928543
H   18.654623   94.124664   37.104637
H   91.783249   20.725180   17.264948
H    3.588488   16.852156   64.712578
H   77.085732   98.039841   80.292595
H   89.868164   85.968330   37.670570
H   90.393829   14.940929   69.375381
H   97.186699   21.070213   82.610107
H   19.664087   63.594318   85.292259
H   49.342674   78.443001   37.335499
H   38.174942   31.180492   68.799942
