100
TIME:    1.825, STEP:  1825
H   93.905426   54.659500   97.475174
H   50.504570    3.692928   93.120750
H   11.124952    5.202254    1.911902
H   81.782928   57.460350   40.128872
H   78.824692   19.039310   16.221619
H   99.716194   99.230934   59.482372
H   57.320820   84.570396   33.170235
H   76.444893   46.487110   40.628860
H    8.766014   10.827137   85.209938
H   24.967100   42.587654   79.155571
H   30.497971   39.675205   63.955250
H   86.184952   15.168247   63.023491
H   27.174492   51.292397   43.738609
H   64.718269   99.450691   96.122597
H    2.698168    7.011068   63.048141
H   28.145767   52.108940   81.550552
H   77.340195    2.687163   39.516411
H   40.143913    5.950833   36.277145
H   73.687202   54.916008   59.508968
H   43.348824   67.055771   40.587105
H   55.978546   74.533325    7.711071
H   37.340824   46.508728   63.860680
H   61.377647   79.779610   80.134399
H   49.479256   58.569736   71.534683
H   64.311394   41.434769   50.027260
H   38.290874   73.228058   18.115324
H    4.706608   66.616104   36.181423
H   78.553329   41.624538   27.096682
H   50.853790   14.670419   70.903679
H   70.972038   45.671341   28.470470
H   87.892067   85.701981   64.997528
H   80.988861    2.091636   30.314659
H   98.907547   34.956093   62.207367
H   55.212013    6.472404   94.867432
H   35.408592   20.964302   35.857933
H   31.231758   27.846899   14.365933
H   54.839661   37.701515   52.268131
H   88.560829   25.551426   51.225773
H   68.676834   41.549629   67.210281
H   91.298882   41.332951   81.621780
H   10.523338   18.803659   85.340744
H   67.600586   93.763969   88.541748
H   26.960630   74.443924   33.295288
H   62.820610   43.357788   59.172054
H   98.350655   59.883472   12.280169
H   54.542515   97.725868   90.581184
H   55.350391   24.188936   43.217720
H   56.336880   14.173460   81.498604
H   18.377676   81.302696   71.675735
H   64.165825   58.527065   56.020733
H   43.405384   93.451210   72.659363
H   93.825111   94.392502   54.255108
H   46.737206   32.590698   96.876122
H   34.429813   77.431114   12.348959
H   95.471268   18.493864   15.892567
H   95.849716   10.613960   30.499496
H   11.949617   36.887566   29.560232
H   90.163910    4.538591   66.547806
H   34.210548   15.879008   71.378006
H   38.587215   68.064468   11.702521
H   74.822983   93.701607   72.103600
H   34.138336   10.957478   12.778075
H   98.020813   82.701744    8.356088
H   68.359985   51.722038   77.593102
H    4.758584   15.084027   65.520859
H   89.232735   51.546852   54.093594
H   41.145767   11.458581   55.173595
H   54.300575   21.911072   53.448154
H   47.860954   18.653458   45.772354
H   67.355530   39.935387   97.890198
H   64.080437   71.227715   40.259434
H   23.487806   90.956741   90.239616
H   87.997879   28.034458   14.952374
H   90.026024   33.889694   94.743385
H   50.161392   31.240458   39.745708
H   68.805458   24.537607   73.129387
H   32.652824   68.369125   23.324503
H   17.722149   31.388006   15.227080
H   49.030876   48.156101   38.039925
H   10.024014    9.560099   63.695808
H   46.595890   48.162121   89.064980
H   78.255249   56.146194   34.172562
H   33.270512   37.717621    3.722172
H   75.714302   68.329201   96.736328
H   63.467148   34.729538   70.839188
H    9.286442   76.091270   68.516777
H   89.042336   70.660553   10.566294
H   85.334061   59.180649   76.771339
H   93.555611   92.559517   13.268631
H    4.983442   34.190132   89.457268
H   98.709023   71.975159   72.002396
H   13.318735   32.762798   68.294258
H    2.380065   82.314743   60.102158
H   23.620724   23.931971   49.868385
H   25.039131   86.257111   58.022972
H   44.659119   23.663702   73.185257
H   17.742554   72.413536   32.231979
H   13.565919   31.776459   26.835949
H   21.773853   44.717152   92.179611
H   52.580032   31.825806   21.912266
