100
TIME:    6.696, STEP:  6696
H   64.499100    7.965548   93.015640
H   15.548790   67.711800    0.309016
H   94.866394   55.640846   44.742130
H   82.600510   56.775421   73.133301
H   35.195587    9.471266   84.149689
H   24.181835   93.953819   41.873615
H    2.033645   13.482916   14.089075
H   93.593895   67.890076   93.388954
H   89.027412   42.500351   78.598091
H   91.867897   12.529173   69.893227
H   77.409424   35.670490   94.757072
H    0.271256   59.326481   16.300488
H   16.781113   56.669476   59.673271
H   23.534962   84.436928   66.809731
H   61.935616   71.913109   28.892086
H   32.292969   26.072487   77.214355
H   85.654549   24.859463   82.951637
H   44.258198   69.011719   67.405800
H   49.556698   59.260689   16.133945
H   12.116859   63.611996   72.227440
H   66.926590   89.609100   75.500511
H    4.332382   52.973022   49.052017
H   96.340950   40.164085   40.770767
H   96.902733   16.931856    9.769838
H   90.097481   55.134567   85.991371
H   16.022177   28.708786   60.754425
H   84.675575   64.134476   32.826809
H   67.551804   68.986351   88.106796
H   56.769035   56.605389   40.647980
H   57.747303   25.114067   15.701427
H   79.585945   22.499161   79.612801
H   88.546875   67.505402   79.381813
H   42.014469   78.571312    1.025514
H   61.023842   60.074265   89.660065
H   14.311272   52.688881   32.441368
H   54.709347    9.887990   98.374275
H   22.032867   59.313599   36.083836
H   87.234566   36.413311   94.960335
H   62.434162   35.520866   95.420517
H   32.505390   85.326294   64.863022
H   77.627640   85.939217    0.100557
H   35.911652   67.861511   21.803112
H   68.913055    3.655246   85.133141
H   51.780468   25.034811   35.435204
H   75.826744   67.700058   29.105406
H   91.692039   90.632797   10.364462
H   94.047165   88.988785   89.739586
H   56.597019   64.336609   82.888474
H   60.757935   77.886879   77.368912
H   66.322998   32.650837   15.347289
H   43.041813   23.188097   24.012535
H   30.551319   42.400734   34.485634
H   47.768360   60.834412   13.974981
H   21.628914   97.949020   27.291683
H    7.649128   45.410637   57.302677
H    1.935619    5.490181   64.679153
H   20.749712   96.335945   92.832680
H   27.457418   44.533180   41.082626
H   18.376747   21.693645   97.431587
H   17.152557   42.465420   73.160423
H   82.089226   67.174942   92.323502
H   61.263802   65.616653   92.380493
H   28.651499   50.360268   74.305634
H    2.841488   78.239044   45.344700
H   98.097626   26.045471   19.138407
H   90.001709    9.395144   42.103622
H   50.336105   79.859467   90.344498
H   17.827431    0.488041   86.310120
H   90.629311   68.654480   40.271648
H   66.041710   84.931572   87.633270
H    9.403740   39.805679   81.826668
H   21.851591   29.297943   46.872032
H   70.399399   87.095062   90.062073
H   82.803398   25.629936    5.300461
H   85.011833   38.187862    9.000004
H   83.955360   36.723461   45.373207
H   74.922455   46.245403    9.496126
H   46.570583   12.884821   84.234779
H   82.610374   33.850460   92.387657
H   71.146957   44.257179   44.054741
H   41.903191   98.554855   80.193512
H   43.759117   87.895340   26.817432
H   41.412582   19.098791   67.637405
H   10.824185   85.150169   51.840305
H   26.289827   30.046432   98.650383
H   97.179855   55.011009    6.773749
H   14.365496   16.499046   42.834541
H   63.719109   69.254150   26.150742
H   94.643173   21.349630   73.426155
H   74.322952   33.784603   63.580322
H   98.050529   34.996750   74.869064
H   73.735092   99.082962   61.108116
H   14.679852   28.432476   36.816536
H   94.409676   19.411341   78.300018
H   40.823158   49.943367   69.953278
H   46.983749   31.313208   21.592056
H   31.104986   51.949341   52.096375
H   25.352495   17.777725   44.458870
H   89.731194   65.717155   84.176994
H   55.124310    6.805186   52.694195
