100
TIME:    3.912, STEP:  3912
H   52.769440   63.270996   95.564468
H   92.450127   16.846430   24.767439
H   46.998451   55.348778   77.422127
H   82.133224   71.475639   25.732595
H   60.131622   86.321556   59.634048
H   67.361580   96.969933   66.165367
H   47.941723   25.494350   96.376427
H   12.410812   27.039791   49.007656
H   57.463509   10.170584   53.841396
H   67.936028   72.553886   60.881775
H   36.370316   23.650105   62.924900
H    6.528885   19.778742   14.468706
H   94.420425   25.026123   36.308121
H   61.381554   93.017982   54.945950
H   28.086304   20.591721   62.727924
H   44.231903   69.571220    8.310778
H    9.527381   40.718678   29.513144
H   84.735558    4.459982   63.921551
H    6.199169   42.467369   69.460266
H   87.122673   22.740564   82.679802
H   32.133087   66.766235   51.063393
H   37.427597   49.277222   86.135361
H   33.513191   62.806175   20.423306
H   55.574318   83.599976   16.533489
H   89.669098   75.918747   65.430824
H   28.718695   11.045787   22.499094
H   24.742346   79.860672   77.590736
H    2.459208   39.038635   96.080254
H   96.233047    4.019504   72.250038
H   50.996323   94.017387   94.381775
H   70.018776   72.851509   99.873955
H   12.763173   44.426086   37.110603
H   45.913792   82.262016   50.220810
H   43.393250   15.211176    6.945376
H   83.529007   63.202904   62.940300
H   12.695681   91.793488    7.183390
H   55.010101   61.270004   16.715445
H    2.303231   87.358894   98.501350
H   79.946411   96.182976   65.210381
H   94.726952   45.955208   45.822636
H   67.894302   90.414688   34.510723
H   80.032852   87.430756   86.590714
H   44.937183   86.959045   84.041374
H   29.550837   78.333099   63.228394
H   17.318991   77.542908   90.870789
H   27.617489   37.532215   99.051979
H   72.297165   37.586266   63.018593
H   56.448338   35.662292   10.630272
H   79.380966    8.458481   88.422760
H    7.923854   90.279366   10.054745
H   43.246159   91.964821   94.664322
H   95.249222    0.734475   17.245869
H   90.021034   44.691833   75.667366
H   86.100304   43.379066    4.442896
H   29.314529    1.426091   33.619816
H   98.461014    8.419058   59.453094
H   44.254986   76.667503   28.051306
H   34.760246    7.447296   12.790682
H   98.808784    4.059789   11.156361
H    0.868146   28.477369   52.344002
H    6.472256   96.646873    9.386240
H   60.070091   91.529739   18.347893
H   39.646046   40.335625   65.212883
H   11.669062   63.074814   20.928577
H   87.596519   48.399456   59.876698
H   61.024788   47.795662   77.491776
H   73.701309   83.609985   55.933880
H   10.137236   41.269180   53.218822
H   51.876945   68.694962   14.877975
H    9.643908   44.905304   93.495575
H   97.807915   29.227726   15.220634
H   51.404289   21.693665   43.040287
H   51.922012   24.803036   61.447472
H   44.093655    1.819803   70.716393
H   50.783718   34.215939   97.953651
H   18.138315   58.296402   32.701885
H   22.138849   87.480515   60.234837
H   15.773204   94.924171   30.484941
H   49.106293   42.027950   61.332611
H    7.673335   95.897514   83.898979
H   87.428085   69.753098   13.800176
H   34.846832   69.775894   59.658569
H   65.311226   72.556152    2.498663
H   19.289930   46.917549    6.116772
H   61.847458    4.185781   68.527908
H   61.260380   52.750084   13.444495
H   28.428366   18.918663   10.082708
H   18.926149   92.090218   55.059547
H   36.869736   76.358452   96.195686
H   20.464941   48.326515   64.059387
H   84.117737   84.668053   16.076090
H   67.744812   89.705620    8.067654
H   36.220192   44.897141   21.525492
H   25.337261   50.525177   90.584709
H   88.953529   99.315666    5.981181
H   17.036789   41.250130   65.389030
H   52.086029   92.182426   12.206202
H   21.225927   49.546021   93.438728
H   22.354576   53.713390   17.365494
H   82.200111   78.244026   20.884367
