100
TIME:    2.142, STEP:  2142
H   72.467682   25.588913   97.184952
H   41.686653   20.880201   13.116686
H   16.573874   28.007671   98.191322
H   81.836136   44.400352   22.752464
H   75.985352   44.448261    7.626825
H   94.801765   98.887505   90.875084
H   40.708019    5.974863   57.960045
H   51.529320   73.911560   11.522089
H    0.973500   80.348770   65.257164
H   16.305178   47.139305   91.567406
H    1.011411   52.430470   33.421459
H   74.087524   31.057878   40.458717
H    7.010352   32.113548   12.231888
H   49.022087   98.473610   20.246906
H    6.554244   78.695282   47.809059
H   15.399441   24.382088   55.237076
H   51.853851   23.650887   68.376953
H   46.918182   90.535042   25.286659
H   78.625816   68.214676   76.210602
H   34.809036   60.323940   62.169960
H   37.167313   42.974888   99.107086
H   67.735977   46.927521   36.867172
H   57.145241   77.201469   71.064957
H   20.026543   62.371647   47.991180
H   52.973381   16.294273   52.365967
H   36.837345   63.781384   88.402412
H   77.372292   53.438076   42.471989
H   51.805626   56.421032   37.574703
H   57.746567   43.430733   55.918541
H   83.127510   37.825668   53.671261
H    0.361988   14.129820   39.914982
H    1.004497   93.332268    0.968418
H   21.236885   11.763561   90.765228
H   68.605766   77.421280   81.512375
H   27.528374   97.001221   55.160126
H   58.793224   52.750179   13.276391
H   85.244537   26.092012   77.246582
H   75.457298   19.749401   73.595680
H   54.659988   34.744873   36.736153
H   61.440067   11.656056    6.561861
H   88.859428   29.680944   92.809128
H   39.110443    7.990880    3.434806
H   29.691137   76.344879   56.191399
H   42.577614   48.671272   90.167404
H   70.852104   47.377316   39.407806
H   50.452801    3.772144   91.867836
H   58.463642   41.327423   46.017021
H   56.353809   17.437250    1.112777
H   27.643019   55.048092   59.030769
H   70.811913   63.352009   33.850178
H   43.381199   62.847282   76.001755
H    9.230352   64.978485   33.443760
H   53.313156   34.428772   78.466362
H   27.089611   72.260323   26.336458
H   70.236450   46.284466   18.581984
H   96.246353   10.280809   19.708069
H   32.045208   27.740730   59.709480
H   66.559174   74.602036   58.382889
H   59.210770   29.273966   47.041191
H   17.669453   92.428619    2.686868
H   94.819290   78.958321   47.387974
H   22.888371    8.006281   98.434479
H   19.522961   61.085030   86.608566
H   90.126648   53.446442   68.988014
H   17.341003   89.765991   95.041290
H   69.758827   35.787788   72.837105
H   15.711855   22.417845   70.477982
H   32.403313   40.040955   68.602585
H   63.661133   95.875877   25.889717
H   73.779114   55.880676   97.222687
H   54.014565   49.658180   36.457134
H   97.349915   80.436188   13.448492
H   67.329224   12.355206    6.823734
H   83.051018   13.829118   75.903130
H   65.444237   31.691511   63.776104
H   76.298027   44.855133   51.799442
H   61.435608   40.892723   28.931837
H   32.615383   10.660097   32.734707
H   64.227264   47.227001   41.576218
H   94.477547   92.296021   36.385902
H   52.799389   51.441631    8.011364
H    2.039112   58.216446    7.664492
H   53.327282   43.009338   33.914707
H   97.519661   95.455299   67.781830
H   48.032166   14.900143   40.109497
H    1.990022   87.734016   90.530128
H   10.214071   47.612076   25.682249
H   90.437134   33.800720   73.472481
H    0.133997   74.909172   10.675375
H   76.957352   21.147064    0.790330
H   11.682129   89.093430   78.696854
H   36.774586   56.603062   74.335716
H   22.718605   91.814682   84.625931
H   54.260929   43.161098   71.241646
H   19.557560   57.863182   65.307549
H   70.841995   11.146427   56.811890
H   92.580765   90.605629   14.001123
H   14.729831   34.475525   21.763107
H    6.673462   46.083614   65.624283
H   72.266769   23.683865   91.380280
