100
TIME:    7.517, STEP:  7517
H    8.978472   32.675728   92.263992
H   92.876022   12.198258   52.076939
H    8.981302   14.707091   35.102245
H   82.738312   22.950424   28.129921
H   27.840193   75.278038   61.888382
H   11.448226   93.064369   23.179485
H   59.002712   68.922592   78.292343
H   29.064919   38.917667   18.007370
H   68.845665   63.564484   26.918106
H   69.443733   24.317980    2.038867
H    1.042005   68.705414   15.674364
H   68.940002    0.479187   57.860649
H   64.415581    6.992189   78.087502
H   82.884560   81.906380   29.287113
H   71.907478   98.577347   89.409943
H   99.280197   54.264709    9.064047
H   19.634804   79.161514   57.690517
H   61.815441   29.061630   38.948914
H   62.340977   93.699554   59.385021
H   89.996780   46.180027   28.124887
H   18.207275    7.875612   53.217182
H   83.042450   54.062912   79.136307
H   85.379417   33.486946   17.279806
H   20.619898   26.753389   48.796440
H   60.733101   90.024017   92.054665
H   12.164043    4.501705   83.499626
H   13.879232   30.003603   49.118778
H   98.279625    7.307838   15.243924
H   74.620674   31.092710    1.840203
H   89.228821    4.793653   80.968742
H   11.895970   96.119949   14.657890
H   40.385159   44.823460    3.377726
H   99.843636   18.502817   74.987679
H   95.712395   84.834572   55.071732
H   93.878166   90.527672   82.392334
H   26.077442   74.192398   95.793617
H    0.777535   29.247393    0.775650
H   53.299637   21.386616   52.894257
H   27.776928   17.634161   15.859219
H   55.175423    8.466569   29.456064
H   21.517706   14.110532   19.441740
H   66.722115   71.081070   63.714512
H   75.978546    8.580133   44.433895
H   99.358826   38.815025   15.708119
H    4.612122   35.309582   99.359566
H   81.093803    6.291109   13.699900
H    0.461506   33.638802   97.619362
H   56.646420   72.792648   33.686886
H   84.759712    9.892780   44.618408
H   83.560791   45.146984   57.944626
H   42.985439   43.925964   32.666122
H   70.454712   66.217865   80.592468
H   64.799156   65.594849   66.294502
H    2.618484   84.557159   63.520706
H   42.280533   17.358593   64.286484
H    2.958174    4.626569   36.730377
H   72.796127   72.646507   70.916679
H   66.324387   66.999474   19.934477
H   83.123100   56.388462   34.405907
H   62.972908    5.568906   49.809227
H   33.879223   28.996723   28.311646
H   32.124916   57.974899   55.235077
H   84.389977   94.336090   18.007202
H   59.219799   82.711349   23.052074
H   30.684704   60.475033   95.594063
H   39.566132   68.581017   90.647552
H   84.465240    8.245552   29.983648
H   61.115150   47.442986   25.558670
H   31.548347    9.662643   88.779327
H   82.691124   26.204180   85.900162
H   83.333321   83.945267   71.980080
H   54.260098    2.005374    7.039873
H   16.868650   46.490353   69.015930
H   64.726265   73.667664   56.518768
H   24.572321   39.383572   71.245712
H    3.361290   89.342064   90.130775
H   49.487019   75.185616   24.056173
H   85.142654   59.203228   29.575312
H   21.981222   31.438923    1.546057
H   30.883770   99.532310   73.324959
H   57.972649    7.049172   29.263718
H    5.366794   93.219513   58.131176
H   93.341652   32.828892   45.824684
H   67.305809   55.405270   76.854973
H   86.314423   78.687035   19.063902
H   78.288437   85.166489   63.786499
H   69.198219   56.805336   81.982872
H   76.923058    3.555712   17.638329
H   11.682305   75.637856   66.711433
H    1.734451    0.004294   92.932083
H   31.649342   79.327354   92.207077
H   34.480778   60.829529   76.753761
H   67.307693   53.067738    0.305732
H   73.754616   69.220543   33.658489
H   26.628353   76.402969   88.819641
H   14.795012   98.894531   79.185997
H   65.938225   99.065140    4.878924
H   23.767771   58.399128   27.978224
H   50.620445   69.262428   15.409306
H    6.121944   85.735245   73.604385
