100
TIME:    4.723, STEP:  4723
H   97.925697   88.898232   94.821976
H   70.037636   60.797813   75.906799
H   60.938751   13.695624   67.905846
H   82.269348   38.063469   81.279793
H   52.867569   51.326782   37.643890
H   54.784168   96.091316   46.480976
H    5.438609   80.257538   59.797756
H   48.667809   97.202087   74.544273
H   37.527580   32.196289    2.790209
H   45.772621   84.198647   92.636322
H   60.933075   56.282658   84.806030
H   75.578041   60.430214   56.740593
H   42.682663   75.980888   55.720947
H   21.225906   90.518257   16.662012
H   37.950310   48.149811   23.741528
H   11.622166   98.638077   40.991150
H   44.311623   94.361084    3.341672
H    2.066235   65.010902   35.802197
H   18.830715   76.489822   12.189066
H   65.268639    5.517828   37.896400
H   84.007210   86.027679   29.054256
H   15.178955   50.353836   17.071167
H   22.685173   56.210365   97.218750
H   80.223602   93.326630   56.302795
H   60.662384   11.601463   71.420265
H   25.016222   87.032425   46.288418
H   54.809982   46.148228   93.678078
H   34.029018   76.893387   22.888597
H   13.868381   77.599602   33.912666
H   82.094391   73.945335   58.853432
H    1.933853   45.575817   35.710213
H   63.970318   22.021370   62.032280
H    3.038429   22.924952   23.282095
H   77.659286   40.887909   72.778847
H   63.370331    1.897402   12.326775
H   83.200165   55.354404    4.578733
H   32.796455   31.570251   80.619308
H   68.780022   72.521416   55.729465
H   45.714191   78.511650   86.618729
H   18.339975   70.032570    9.629744
H   12.468315   18.241919   53.617535
H    7.144356   23.828234   24.690866
H   51.922802   91.822372   42.620918
H   77.763641   91.920715   42.525368
H   46.970074   45.545044   60.270527
H   17.154530   53.000813    2.347361
H   78.633102   81.690331   70.803169
H   56.491650   44.015335   60.810402
H    3.090515   41.290455   56.073311
H   24.933125    2.618429   53.330490
H   43.184284   13.668243    3.214785
H   34.660698   25.479902   64.007233
H    6.840599   49.394287   28.564150
H   67.315239   30.144135   40.228661
H   64.742706   72.501961   40.518810
H   99.475754    7.565585   31.844742
H   95.670227   53.266609    5.184010
H   74.371231   30.858908   91.900864
H   62.768471   38.327896   48.896286
H   47.348804   90.813156   29.277229
H   57.631256   58.929081   46.153061
H   31.286203   83.981064   81.653824
H   94.704613   84.993820    9.600182
H   67.360695   67.491348   98.907791
H   19.785658   83.626160   35.401890
H   11.204189    7.478622   25.443945
H    8.633089   11.649745   95.087997
H   54.115883   87.650223   91.989311
H   92.295151   10.421661   64.015839
H   26.074652   85.695801   91.787842
H   72.055794   74.046951    5.491086
H   84.534027   94.777603    2.417279
H   99.042374   84.687508   40.651489
H   26.236759   50.499416   22.528637
H   89.886238   35.372990   59.433559
H   37.313187   10.272299   78.130936
H   95.772476   17.187737   74.577324
H   53.875454   41.895237   75.274254
H   87.998161   39.645786   70.380470
H   67.900330   51.729855   14.030462
H    3.293781   78.143265   62.271481
H   95.697075   75.072342   91.842796
H   16.614321   86.104553   79.738785
H   75.084000   16.316240   32.043854
H   22.358465   53.459457   89.910606
H   42.592876   82.538750   69.762634
H   82.593208   59.952347   48.754440
H   31.978552   27.159464   46.626068
H   53.699570   31.202578   89.562752
H   48.762371   14.957657   93.053726
H   17.307335   28.460629   33.202923
H   27.753069   50.693817   23.521284
H   88.207054   69.233665   84.241379
H    3.723034   99.717010   45.265873
H   74.932793   26.671951   24.615486
H   84.022003    9.225819   23.500069
H   87.713066   38.723812   65.564880
H   24.202085   56.451202   80.457481
H   83.720367   57.209293   49.436882
H   32.574612   57.431438   42.758938
