200
TIME:    0.779, STEP:   779
H   26.033419   60.686169   24.556143
H   32.768250   40.746944   11.778791
H    6.840721   92.730095   71.896843
H   36.011200   83.273720   30.404980
H    9.487442   97.390121   45.908978
H   72.083984   38.185688   49.595783
H   11.168372   54.921692   60.084126
H   14.967315   12.160632    5.940360
H    9.317417   79.425667   34.570518
H   91.887390   67.348602   74.812157
H   30.980566    6.108160    9.994576
H   33.006638   56.409527   38.424587
H   24.403263    4.896634   39.200706
H   78.927979   55.481007   68.238731
H   93.599075   76.093842   41.652393
H   13.589641    3.758195   42.695637
H    9.562749   32.962494   89.262337
H   23.763483    9.078821   33.924446
H   82.958916   10.188445   50.418407
H   91.771057   72.302635   16.576412
H   64.553635    3.664557    1.146745
H   78.029503   69.416710   49.803749
H   78.864655   58.622490   36.203201
H   20.024847   92.973312   89.895950
H   26.674141   34.381741   26.177387
H   18.214914   86.257057   89.154648
H    9.333851   69.611961   70.753387
H    6.880515   92.364334    2.149533
H   33.770233   40.146553   35.182217
H   68.692604   35.203690   79.980988
H   12.657784   73.967903   16.853800
H   22.124519   76.139145    6.873698
H   14.099823   20.583405   79.762856
H   78.587639   64.165970   47.711449
H   22.122032   67.529099   30.118710
H   15.454669   37.632511   85.657181
H    1.734660   62.795464   90.001381
H    6.253996   58.697876   90.933327
H   33.121758   27.100061   56.412655
H   84.913658   37.471989   42.641693
H   80.664688   80.044716   19.414921
H   40.167587   31.804367   23.848379
H   66.996964   75.399963   70.342575
H   36.080490   89.412437   38.025185
H   47.193508   92.740013   63.814827
H   33.474758   99.811096   48.549881
H   90.131393   99.805161    7.996371
H   76.993652   65.542381   28.270767
H    7.925428    8.298057   61.554939
H   42.828918   20.233896   82.909706
H   65.386261   63.673904    6.507894
H    0.534102   44.975201   75.130028
H   66.714684   79.008072   14.971850
H   14.384530   93.558167   89.685028
H   54.384171   64.397743   73.341553
H   98.396294   59.070858   96.297974
H    3.892257   18.785133   43.872776
H   73.297409   71.109398   95.574562
H   16.807724   84.889664   20.162647
H   30.637024   92.962563   57.030266
H   48.673870    4.860371   26.488306
H   99.623985   17.701735   53.198334
H   86.296623   36.371834   66.700577
H   37.185905   65.921326   15.701893
H   80.012871   84.114395   39.970570
H   17.595898   37.501427   42.551743
H   66.041603   11.792471   96.971077
H   94.323036   92.675377   97.942825
H   35.694595   13.137059   55.157593
H   42.134277   51.024406   50.953808
H   58.228710   85.914589   87.698868
H   16.992022    9.654356   40.991844
H   94.600723   34.981441   81.447121
H   25.425434   97.117157   76.264503
H   85.708176    9.596734   42.268959
H   66.937622    0.047520   59.355335
H   93.149399   50.015888   64.521477
H    6.591550   15.784836   29.536461
H   15.629776   53.705376   22.995724
H   60.153435   87.660896   68.699921
H   66.244507   20.992401   93.131454
H   50.337143   58.896606   71.194420
H    8.896814   19.578678   74.509262
H    7.097322   79.484673   11.418608
H   19.714321    5.023564   42.507267
H   39.852169   66.915573   16.562565
H   60.012592    3.907266    3.007041
H   70.849144   98.483475   31.772093
H   82.183701   73.369102   79.111877
H   20.744442   10.207236   48.935650
H   18.648706   39.545799   78.357048
H   80.300949   93.264542   10.128696
H   72.865288   10.783175   80.378822
H   35.858154   75.069092   83.904633
H   38.782181   49.635193   90.388519
H   46.950813   39.760227    3.719132
H   86.617165   95.635750   21.542557
H   92.077774   36.813732   53.696865
H   24.804543   64.378654   54.791386
H   76.576233    6.685472   27.381998
H   33.914516   95.329163   94.320564
H   10.614571   84.811150   62.891449
H   34.352364   17.471546   38.034622
H   47.775215   68.934647   11.567170
H   24.624237   20.389393   42.562515
H    8.762047    0.383583   18.655441
H   91.191231   36.789459   53.750763
H   61.574974   54.969242   97.899513
H   86.494446   33.285946   25.195988
H   21.681334   20.545263    8.175268
H   54.286106   91.382935    1.175077
H    7.636176   76.899353   96.650742
H   47.732517   86.529381   82.211365
H   61.398338    7.777179   61.055035
H   45.863304    4.413071    7.873594
H   92.041794   90.030235    3.250174
H   10.413929   16.032372   90.463608
H   38.036472   53.526619   23.204430
H   39.331692   77.949959   56.901093
H   85.006882   57.432491   69.450134
H   46.180122   25.341198   69.857742
H   95.032829   14.711514   64.042915
H   45.231087   99.089737   40.019096
H   96.136253   47.923077   94.261436
H   60.788155   95.607056   74.986557
H   67.469337   77.099167   15.124281
H   81.988945   51.706619   50.238586
H   63.638870   91.797356   39.554829
H   99.100769   32.973129   72.606995
H   93.870277   21.594614   75.684250
H   70.366837   65.940399   24.009571
H   61.011307   91.397293   22.037930
H   90.677711    8.818165    1.385048
H   74.491173   26.822334   56.340733
H   31.053051   91.624130   31.648842
H   48.002235    0.935094   75.740860
H   69.785072   87.938011   82.171051
H   95.815834   47.391594   74.681915
H   60.401779   51.871376   71.422607
H   43.739914   83.239815   80.480698
H   77.302010   47.218021   32.321152
H   32.425018   57.387836   58.811852
H   37.678562   66.681221   81.204018
H   33.014946    7.016770   87.056221
H   65.637474   51.891151   66.693619
H   65.689362   71.261627    4.031519
H   57.479210   94.417366   43.422554
H   27.934723   53.355057   65.732567
H   79.594574   42.288097   92.586205
H   26.643766   94.559418   69.826378
H   57.222393   70.463806   47.275131
H   56.476673   92.195175   31.261288
H    1.215221   11.684483   84.543816
H   24.158007   13.514802   62.632751
H   34.985924   68.114166   70.504028
H   79.502838   44.865383   70.644402
H   64.953262   77.048424   87.137985
H   53.709232   28.011848   22.351805
H   87.712631   99.703339   82.615494
H   57.636734   34.951538   98.925659
H   59.250462   62.511688   69.084717
H   18.296803   20.263060   30.874523
H   88.420631   11.069613   37.007935
H   31.059589   36.013855   48.138744
H   53.793320   40.377567   15.120601
H   21.200171   47.289185   59.355400
H   65.618500   88.849007   57.935661
H   24.103065   55.455929   70.301071
H    1.397153   26.417366   35.584194
H   51.070339    6.392191   84.333679
H   69.067932   12.043778   35.930840
H   27.542454   45.426800   59.113293
H   48.087200   54.293221   75.258072
H   64.588776   61.646145   86.744606
H   46.386078   90.981873   73.887665
H   17.547264   50.574062   23.808743
H   29.880608   69.759438    9.454556
H    6.507083    9.714890   71.772324
H   61.817001    8.849264   62.831154
H   60.660961   60.236916   93.988541
H   71.577217    4.504897   29.187468
H   30.099411   30.764004   89.293251
H   40.817162   89.598351   16.745613
H   63.219036   26.217705   97.019524
H   92.493217   64.956276   76.176224
H   10.544126   40.771912   86.651833
H   50.120270   95.292252   11.208111
H   64.526253   90.055733   44.386997
H   91.008736   63.577011   72.703552
H   59.415104   55.341282   72.512894
H   73.568321   13.191601   75.452400
H   43.234310   99.577011   17.758997
H   16.072842   30.347029   70.154251
H   25.687218   85.042274   44.175774
H   66.397736   30.180285   20.053160
H   76.644058   11.706046   22.181810
H   13.044072    0.256593   21.659346
H   13.244836   86.693787   31.765804
H    4.725622   13.120060   53.911095
H    2.386005   16.731462   90.260399
