100
TIME:    9.333, STEP:  9333
H   86.169586   66.141029   90.601395
H   42.720993   10.604740   66.581841
H   40.196575   45.356972   13.784990
H   83.043121   48.131401   28.588640
H   11.567518   20.838089   12.650269
H   83.290649   91.096962    3.023779
H   63.825718   91.546364   20.305935
H   86.330902   96.025589   51.269318
H   24.204918   88.961975   12.607740
H   19.841204   50.393055   73.145424
H   32.122101   41.774460   40.745766
H   99.624596   91.505821   28.595482
H   48.615265   97.075020   97.620026
H   92.967590   76.308968   67.486565
H   93.964607   36.363258    2.077855
H   26.263905   95.430527   58.320374
H   73.602638   99.277168   23.008162
H    0.647468   40.695045   75.997635
H   90.632034   69.885696   55.058987
H   41.067486    7.617235   51.766624
H   10.443081   27.087782    3.930326
H   57.144146   56.473679   24.487091
H   61.133202   18.723768   65.322388
H   51.888119   48.477997   13.924105
H   95.783554   46.007454    5.463657
H    3.599742   50.966660   12.604757
H   57.284752   54.516582   85.147446
H   45.049965   92.072601   75.273064
H   14.108336   95.855064   15.996159
H   58.861519   59.847733   25.335045
H   83.368309   58.963108   70.981842
H   55.048603   94.652267   35.261497
H   27.761009   85.636002   38.587303
H   72.443451   18.408813   78.567284
H   48.683220   53.030922   92.879562
H   83.939423   16.433149   90.085365
H   74.954590   62.740486   43.869160
H   78.240944   88.155022   81.044823
H   51.124401   78.067406   39.875061
H   84.128937   38.459122   72.336502
H   97.407562   76.419144   62.225918
H   13.679588   78.202530   56.425838
H   91.606964   19.474716   75.604454
H   83.404823   69.303444   93.265450
H   47.086922   63.672398   54.763538
H   57.654930   40.923504   21.077677
H   14.658717   32.399433   15.057867
H   56.757259   91.496872   46.050312
H   37.842369   59.490200   72.178375
H   21.683264   72.792076   30.969131
H   43.249027   68.632790   51.218140
H   58.712978   97.705566   61.382729
H    2.457635   76.124634   60.827980
H   60.556770   54.930969   43.655159
H   97.687080   76.504837   79.720932
H    5.219999    2.716313   74.909439
H   87.923767   20.246971   43.633476
H   31.101061   95.500084   73.158226
H   26.352749   33.121986   94.990730
H   43.136562   45.154148   98.157875
H   48.435650   44.542988   86.724983
H   67.671501   41.071823   73.067787
H    7.677596   70.415794   93.478638
H   83.920593   92.603806   73.750427
H    2.764872   15.431637   64.710320
H   28.008038   78.302574   98.024162
H   38.764816   71.026215   17.659401
H   35.671722   51.301949   12.373978
H   22.056932   79.176483   74.884064
H   19.573364   17.417589   82.048477
H   25.660442   60.382122   50.200050
H    4.717824   41.708397   40.150829
H   98.462845   56.660641   22.450703
H   24.754398   58.733280   48.618111
H   12.051133   42.057583    8.935928
H   46.297028    5.730097   67.935654
H   14.418185   18.005100   56.267296
H   70.453346   40.465797   29.876625
H    9.065747   26.104755   21.813433
H   41.825859    0.605967   16.874809
H   93.524529   25.836527   37.804115
H   41.636635    5.001388    6.205493
H    8.206118   63.199009   18.770473
H   92.244698   10.804056   10.992567
H   97.891937   65.083542   43.023911
H   36.492695   51.871819   89.894943
H   90.484810   24.767036   68.576622
H    6.128902   58.240211   98.810226
H   49.371586   74.525887   51.858894
H   41.176388   25.291054   57.846939
H    5.967694   77.384399   30.558006
H   68.846390   97.410629   11.359262
H   83.716873    7.550169   40.739799
H   48.874672   79.364914   56.702969
H   95.227509   13.735844   30.547094
H   64.789124   27.181620   85.387192
H   21.792660    3.280599    0.438340
H   20.262461   48.256565   91.517235
H   64.110435   77.104347   63.302067
H   18.920563   39.134487   98.661850
