100
TIME:    8.339, STEP:  8339
H   53.389397   57.295036   91.511429
H   70.173691   56.743610    3.905185
H   23.110682   73.845123   25.452747
H   82.876282   89.082939   83.074043
H   20.474478   41.164875   39.599960
H   98.700562   92.173836    4.584765
H   15.923556   24.426874   42.573826
H   64.457336   10.031983   42.534843
H   48.639336   84.531754   75.177643
H   46.992256   36.120686   34.226295
H   24.581558    1.780526   36.494965
H   37.565361   41.681454   99.350456
H   11.999414   57.236725   96.400482
H   42.183418   79.372749   91.841164
H   81.891487   25.152237   49.877518
H   66.230118   82.369469   40.831329
H   53.534279   33.530712   32.520424
H   79.388580   89.063362   10.456047
H   75.146286   28.184452    2.694018
H   67.846329   28.726236   84.090523
H   69.428642   26.043415   30.909792
H   61.848392   55.154129    9.135361
H   74.404533   26.804113   93.760956
H   44.244759   36.586884   87.747314
H   31.333027   24.835709   98.125343
H    8.288342   80.269760    6.144800
H   42.997803   95.833878   65.430038
H   28.921392   45.676029   42.415848
H   92.494057    5.671572   62.982964
H   20.747372   84.448990   46.314880
H   44.248180   69.829185   49.623940
H   92.286949   22.114857   27.281044
H   57.745800   58.361320   49.039932
H   30.445232    9.503103   20.442316
H   73.420982   28.290672   32.403828
H   97.533081   38.576424   93.209816
H   79.617241   99.141853   65.545921
H   19.326496    6.342625   10.902091
H   93.079308   99.726219   36.200935
H   77.752380   31.513807   94.129578
H   65.339935   42.312851   38.807705
H   97.448288   74.304550    5.681925
H   83.052643   13.510992    3.808792
H   46.870052   52.614311   96.078766
H   33.309563    2.880295   69.701958
H   70.482658   21.966465   17.039400
H    6.887299   78.341072    5.512212
H   56.696590   81.258987   84.547630
H    8.789528   41.813759   11.827185
H    0.819353   57.658352    0.468988
H   42.928997   64.566887   41.333145
H   10.403854   89.941544   26.633354
H   81.844719   70.361084   18.556009
H   83.579498   71.148987   99.794266
H   76.831154   89.394882   71.272781
H    3.981973    3.761905    8.747559
H   24.908607   48.928215   49.095787
H    5.116990   89.371330   98.760521
H   47.954510   91.120644   71.301865
H    8.731685   68.752380   26.429588
H   85.730850   90.769531   64.220711
H    2.950524   50.323837   18.040806
H   40.195370   38.245026   61.640198
H   15.663570   87.189102    0.733124
H   63.314476   94.821594   72.143616
H   89.071083   27.716820   39.251118
H   18.514952   36.663288   69.668991
H    4.333914   94.453117   64.855026
H   72.517853   50.598976   37.225471
H   99.385490   67.489090   84.156723
H   57.230282   28.015171   62.121498
H   86.570908   74.712303   67.290268
H   63.272797    5.831133   47.939243
H   46.633137   21.644924    7.678956
H   64.169113   40.593945   33.570133
H   22.795397   42.024719   34.820671
H   24.142078    4.038038   38.635384
H   23.759291    5.457409   74.975220
H   61.396736   29.024448   10.719501
H   90.573357   54.754784    2.508982
H   74.064964   15.553140   78.393570
H   67.047073   98.550171   89.363335
H   45.335068   46.575718   24.107136
H   23.859627   25.745668    1.779190
H   46.290588   27.266346   39.380409
H   59.372471   15.358424   20.868851
H   24.097811   97.038918   21.179008
H   90.143089   37.778992    9.115547
H   28.743546   29.869600   59.988533
H   29.058908   66.189102   22.316656
H   65.288933   23.713245    9.566550
H   95.300453   22.651794   92.419624
H   19.999317   77.729515   63.872253
H   53.197220   19.090321   89.084785
H   12.414310    2.772013    7.708340
H   82.688782   66.433960   36.728874
H    0.692112   46.236732   57.605232
H   22.181116   99.074318   11.475134
H   11.462241   72.812019   46.559315
H   57.177410   64.638382   94.417389
