100
TIME:    7.274, STEP:  7274
H   25.411093   54.960121   92.486465
H   99.587296   99.030128   36.754101
H    4.804192   97.225166   37.955463
H   82.697525   32.962555   41.450230
H   30.017649   55.800518   68.477295
H   15.216828   93.327629   99.114395
H   71.738571   52.513897   59.289425
H   48.164238   17.895809   40.319572
H   74.819069   86.927872   42.214680
H   76.080849   20.828859   92.524269
H   23.645264   58.927723   39.081039
H   78.213425   88.298798   75.157936
H   79.910835   21.699802    2.236859
H   94.916649   82.655373   10.794033
H   68.956001   20.283287    1.097042
H    9.051197   75.518311   29.235712
H   39.175362   63.087933   35.569271
H   56.618839   40.886078   47.371376
H   58.557079   83.506577   46.583546
H   96.544907   51.339550   11.580301
H   32.627243   32.067711   59.811657
H   59.745804   53.740326   99.830017
H   88.623817   35.463249   24.233019
H   43.198601   23.846407   66.844284
H   69.424385    9.294800   90.260048
H   13.309780   11.664413    6.366529
H   34.833546   40.105553   44.296673
H   18.783016   95.965446    7.211254
H   69.336937    9.046402   13.326429
H   79.910904   10.808308   61.650658
H    2.331963   74.328705   33.883278
H   25.041927   51.536587   25.873421
H   82.728035   36.281425   53.096321
H   85.445259    7.104043   65.309204
H   99.925728    8.926125   67.608994
H    4.954336   55.159821   96.557442
H   77.469803   38.146606   81.628143
H   63.342445   25.834225   35.747139
H   38.034794   22.928095   39.407364
H   78.063484   31.215528   10.337277
H   38.124741    5.773289   13.716949
H   87.200768   70.128143   51.309780
H   73.887299    7.122471   26.882618
H   14.874901   34.736351   91.948845
H   25.690525   44.896320   78.565742
H   84.230675    1.657001   12.712675
H   98.562790   20.423084   95.287102
H   56.631588   70.289825   18.651409
H   77.655403   30.017330   54.312675
H   78.458740   41.448368   74.934822
H   43.002125   67.385757   30.104660
H   58.645092   88.765518   96.543793
H   59.758579   64.185852   80.406715
H    8.245201   88.520889   52.797501
H   61.628281   96.063103   62.219593
H    2.655517    4.882181   45.002670
H   57.390659   79.658119   47.805428
H   84.418869   89.947578   26.194315
H   63.960747   46.119473   53.060280
H   79.009392   86.891785   56.720726
H   18.550009   40.296753   47.257088
H   40.749458   60.236710   66.230438
H   67.893593   10.918069   34.670441
H   42.532459   81.387634   29.650257
H   21.039566   79.882446   72.964836
H   54.494080   80.661308   76.279495
H    3.961468   99.844635   18.250971
H   77.900749   33.545830   13.941863
H   19.436539   27.123077    4.019130
H   77.755928   13.999598   86.415558
H   91.049431    0.478741   74.894478
H   74.270653   10.074197   89.227669
H   32.713333   58.509464   75.245178
H   70.076744   89.047974   70.957275
H   12.867452   39.025761   52.821232
H   97.616890   73.768944    6.482069
H   27.417492   96.216743   19.746683
H   73.726074   75.092079   16.154619
H   10.328965   32.152691   98.834770
H   42.800827   12.770045   94.259682
H   53.215431    4.535226   14.739888
H   87.131752   91.643661   78.460976
H   77.972466   28.765051   22.681915
H   50.588436   34.611446   99.050377
H   98.146286   93.889366   42.619591
H   83.879929   76.241608   46.911911
H   52.968800   74.473412   70.395729
H   73.014946   23.000792   20.157837
H    6.638716   89.167931   68.698860
H   23.219164   10.002605   84.244507
H   21.704792   66.205147   87.075363
H   16.501238   42.553360   72.122612
H   51.730869   45.776180   81.514168
H   50.269951   54.477989   17.273401
H   30.830315   98.168259   83.235565
H   94.724136    8.489976   91.737190
H   85.226646   85.119781   18.854504
H   24.236818   46.376308   32.856712
H   62.196465   68.213097   35.763744
H   91.027733   91.971909   97.012268
