100
TIME:    8.608, STEP:  8608
H   35.197746   32.626305   91.265152
H   62.744339   71.320114   20.866539
H   27.734529   93.198380   22.295273
H   82.921432   78.000481   68.330269
H   18.064043   62.726414   32.306061
H   94.530273   91.882408   31.224739
H    1.825633   42.591843   63.609974
H   43.314468   33.303226   17.835327
H   42.026802   58.668579   58.245411
H   39.644997   39.983128   44.758736
H   99.559845   12.604003   10.583738
H   27.297668   55.165112   80.202431
H   94.845963   40.955772   69.667130
H   28.864187   78.543617   12.312084
H   85.158760    1.123841   36.941826
H   55.414459   58.841820   18.501606
H   31.902962   51.322163   57.008553
H   85.139145   75.973747    1.131747
H   79.337097   39.470089   16.865284
H   60.598545   23.013639    2.405285
H   53.465797   99.262970   23.608709
H   87.637688   55.511230   86.227585
H   70.812996   24.617380   86.064804
H   19.250235   39.804901   67.770157
H   21.712837    3.501976    0.111923
H    7.019516   72.339645   80.831329
H   19.801115   84.652908   70.766037
H    6.224123   58.232044   51.308495
H   98.343132   30.076799   50.266869
H   31.061241   77.791306   67.699921
H   54.836033   93.952003   28.341515
H    9.271677   14.683361    2.378407
H   76.693375   38.679695   73.273575
H   41.811050   84.850922    9.110502
H   66.726357    7.923578   48.770977
H   20.916155   59.647461   92.364265
H    5.418579   89.290779   86.742149
H    8.208483    1.419586   29.883881
H   81.725945   93.864830   10.133392
H   52.415535    6.330775   15.293710
H   46.955368   51.542076   45.145229
H   74.778503   75.359436   19.414894
H   85.367645   15.124619   23.238308
H   29.694294   57.131439   22.379414
H    9.975914   92.269341   92.720634
H   67.010155   27.096207   18.132254
H    8.990506   92.969917    8.095329
H   56.713009   84.029602    1.191814
H   16.651917   19.535965    1.096219
H    6.465761   61.752705   81.661613
H   42.910526   38.596992   44.169434
H   23.477858   64.981384    8.974483
H   87.422890   71.920837    2.932821
H   77.348694   66.761154   11.663814
H   55.413277   12.968522   73.559052
H    4.317013    3.478943   99.590149
H   41.961227   41.166389   74.679848
H   85.086609   63.967873   91.831932
H   69.171257    2.486594   50.650223
H   90.979988   89.427322   18.778587
H    2.699413   78.258667   43.248165
H   93.403160   47.820023    5.869171
H   58.458851   19.888514   43.194061
H   34.135479   88.654449   93.430832
H   73.990707   73.338043   97.194077
H   72.545906   14.344050   55.156498
H   96.932083   45.962292   82.655991
H   85.752213    9.837766   77.714783
H   85.923523   31.270348   20.353455
H    4.848866   81.001480   83.586182
H   48.686527    9.711493   58.895271
H   64.418304   65.780663   87.008835
H   45.733780   92.524529   41.041439
H   40.712231    4.620061   91.695961
H   77.127380   40.990040   53.965961
H   29.155497   59.266151   16.720507
H   48.573074   80.756348   43.406998
H   36.396015   87.869133   89.833923
H   74.297127   28.234310   13.721514
H   77.381126   40.101311   79.334373
H   79.331184   18.336069   94.471344
H   87.233566    0.294933   66.857735
H   62.350746   51.074375   49.726086
H   42.365730   48.764626   77.209099
H   33.192764   10.439310   13.304478
H   53.180660   25.239258   39.548950
H   42.063709   77.480431   34.005928
H   94.469353   16.253094    6.326308
H   34.326420   14.892851   57.788460
H    5.275516   55.121414   31.932741
H   76.297508   38.237423   15.247336
H   15.203730   42.882965   97.546288
H   37.242802   85.799187   84.674438
H   79.194992   35.410267    7.222845
H    7.762770   78.677719   13.889376
H    4.907114   55.811218   22.834755
H   79.339928   61.674187   42.134941
H   21.661882   12.384503    6.074488
H   98.647942   73.973625   24.027035
H   73.886459   57.736286   68.504959
