100
TIME:    4.555, STEP:  4555
H    9.286591    4.304679   94.975784
H   74.677528   51.693626   65.314514
H   58.050995    1.609458   69.877159
H   82.241150   44.984856   90.487801
H   54.372330   37.860840   42.199188
H   57.389942   96.273323   29.842813
H   14.243237   68.914154   46.659939
H   61.872276   82.667175   89.968712
H   41.657341   48.348755   13.365511
H   50.363808   81.786415   86.058441
H   76.560028   49.522770    0.989213
H   81.989296   52.009193   68.699211
H   53.403122   86.139946   72.414307
H   29.543747   91.036079    3.876674
H   35.907219   63.156403   31.817120
H   18.377567   13.332209   54.936462
H   57.821144   83.248413   88.047966
H   98.474205   73.185829   41.626415
H   16.214046   69.442825    3.338585
H   69.795738    9.085546   26.458170
H   93.976570    2.752001   33.613815
H   99.072632   50.130814   31.377930
H   24.928215   57.576698    2.025407
H   95.832611   91.311737   68.780029
H   66.671173   24.925133   70.179543
H   25.782061   91.997879   62.085842
H   69.297005   53.132420   90.345558
H   48.203762   69.051712   17.334826
H   10.215106   62.357174   41.854317
H   75.652374   78.103294   45.497719
H   95.322380   30.511482   49.001839
H   53.362652   26.662544   77.584892
H   91.205177   35.216347    8.147328
H   70.561020   56.284149   79.856606
H   67.546234   14.597185    2.097221
H   68.596039   42.196079    5.107290
H   16.683115   37.722641   67.381516
H   75.724480   75.595024   43.874668
H   52.806049   82.172295    2.899272
H   34.163589   85.759499   96.411987
H   23.949486   12.477941   49.659527
H   22.243694   16.288363   16.799181
H   50.475719   90.814926   30.486624
H   88.491791   89.106018   26.098841
H   61.542156   52.172913   45.894550
H   19.321949   49.796467    1.664415
H   77.320602   72.554100   69.190742
H   56.482677   42.284988   50.415504
H   98.179611   55.203724   62.775520
H   21.409626    0.061363   65.080299
H   43.197102   29.888000    1.443743
H   26.496458   41.069416   75.035309
H    3.355727   48.420166   38.321796
H   71.206596   32.885773   32.815086
H   78.118927   57.777889   39.089672
H   99.265549    7.742305   37.563858
H   85.018982   58.114143   89.205772
H   86.880997   46.724312   96.228012
H   49.519142   31.229561   61.794418
H   58.434559   77.900925   34.055550
H   47.033844   66.741722   59.251144
H   37.248772   85.544785   89.254532
H   83.299706   96.457687   21.120445
H   55.824142   66.576187    3.469189
H   13.117414   97.043396   19.756491
H   21.524105   15.830116   15.510465
H   22.112490    5.841809   86.977158
H   65.720741   78.042313   83.957939
H   83.922836   22.493073   74.551727
H   22.670996   77.246582   92.141602
H   77.390388   85.477493    7.506460
H   98.387054    0.353177   90.117577
H    9.996607   92.998299   44.959412
H   29.935802   61.131435   32.510796
H   81.785652   35.133305   46.698208
H   33.341080   99.504967   89.435867
H   80.519791   31.748924   71.606255
H   45.982510   52.881016   65.997032
H   79.941154   40.139256   68.506569
H   76.139343   60.880184   28.503807
H    0.006302   76.405228   52.230343
H   83.092461   73.975174    5.890898
H    5.987459   83.294983   63.740108
H   63.525337    1.939935   47.387543
H   30.539160   63.968430    6.196269
H   46.459881   76.368462   58.096252
H   71.372871   72.167313   40.743576
H   29.274725   40.609795   48.373077
H   50.213242   40.556648   90.936775
H   63.616436   21.870071   87.047501
H   10.432090   19.389126   29.655069
H   15.321565   38.059685   20.320166
H   77.437889   64.191307   71.249680
H   87.485733   89.527191   33.939152
H   77.837212   41.720840   20.755531
H   70.145905   15.859776   32.177437
H    1.048247   29.082577   75.226624
H   23.585569   55.020782   83.146568
H   91.723541   56.485111   63.509087
H   22.139978   61.741924   58.943447
