100
TIME:    0.054, STEP:    54
H   13.670808   17.069122   99.096573
H   99.768074    7.672548   81.406830
H   80.692230   77.788872   22.705818
H   81.485672   30.426115   37.203346
H   94.687378   77.085861   64.241142
H   27.178970    1.154879   84.093407
H   50.139523   64.985344   94.675354
H   15.642004   93.274078    3.235292
H   52.300575   81.101456   96.687416
H   73.364876   17.162659    9.803186
H   95.232086   68.415329   34.548134
H   53.780972   26.397224   89.085625
H   39.827339   58.440323   19.761986
H   52.408314    4.910772   61.350662
H   81.159859   65.197556   48.177456
H   99.350677    7.015149   28.557796
H   19.724428   85.568214   78.271324
H    2.298767   92.074493   97.674118
H   46.105164   80.619110   66.205963
H   91.187660    4.400156   19.872004
H   61.072113   50.842125   55.775452
H   67.525673   44.171211   14.657335
H   85.023048   94.183037   30.806160
H   14.024387   37.329411    3.063658
H   27.651293   81.890205   36.956985
H   46.406025   26.005783   84.108818
H   57.423084   40.232655    1.037938
H   27.984123   58.959713   68.561234
H   12.345244   53.991146   54.619476
H    3.064685   89.503159   87.681755
H   18.225954   26.884684    5.138911
H   69.166962   51.018105   94.265053
H   74.162292   64.531319    2.661701
H   80.383736   68.773926   69.476494
H   79.429573   54.838211   28.016869
H   77.250175   88.727898   20.458525
H   84.979683    2.556147   12.719242
H   61.756317   57.965893   26.252222
H   48.293552   79.355247   36.951248
H   58.106472    7.127516   42.282799
H   31.551273   58.031849   43.610142
H   26.767960   14.280020    5.337398
H   11.706920   63.823757    5.374090
H   75.911392   13.676847   86.011246
H   51.970772   29.761356   60.728287
H   77.261772   64.219292   83.530052
H   36.650257   28.653522   28.084661
H   56.242298   95.937820   71.919159
H   66.605583   27.976910   42.320435
H   27.022337   31.571308   79.887833
H   43.534740   64.431694   53.996243
H    7.757752   58.728905   70.517899
H    9.999561   22.321838   99.733192
H   75.433929    6.321269   34.198566
H   36.460823   63.239712    0.864402
H   93.633804   12.475666   90.788513
H   99.676048   87.988655   61.123299
H   22.039087   71.786858   12.164072
H   94.536476   41.050690    7.337451
H   55.459808   31.938452   62.063713
H   63.107132   76.058823   10.186103
H   96.994568   27.442734   92.910706
H   77.896339    3.470770   29.853485
H   46.747726   42.088226   25.674795
H   34.464745   56.532108    0.589723
H   98.028206   39.588673   49.378765
H   83.235863   50.228474   69.669418
H   76.635567   20.625568   68.784111
H   59.595299   45.906227   56.846859
H   31.480713   50.860458    1.617212
H   20.318174   91.730064   61.499760
H   69.513634   49.733376   60.576313
H    3.470448   15.636082   60.365055
H   29.002380   45.962994   99.999229
H   64.773605   28.720533    5.491256
H   26.934385   11.033056   92.296402
H   71.858521   21.863808   91.987244
H   34.517349   47.189137   17.422199
H   64.142998   53.341549   18.290573
H   96.877182    6.012820   16.268885
H   11.938885   29.839518   83.216217
H   45.375919   44.580215   82.265076
H   21.212696    8.158668   35.042999
H   53.885323   16.782444   58.497902
H   49.701797   45.507980   42.517509
H   50.056492   11.031947   45.535030
H   70.761253   99.426674   26.118130
H   56.824463    0.970802   95.176674
H   56.803902   91.165916   27.759247
H   61.560463    7.065286   26.142267
H   26.232485   76.346558   34.602123
H   82.282082   99.568108   34.553932
H   88.749031   29.249453   23.092325
H   52.447731   16.507689   30.459999
H   55.658085   44.893093   17.328297
H   98.381729   93.599236   64.659737
H   58.316002   70.779350   34.083290
H    7.063677   16.697449   55.171127
H    6.139576   37.083065   40.528263
H   42.595104   77.315575   92.484848
