100
TIME:    4.044, STEP:  4044
H   43.842682   51.165894   95.443619
H   88.790535   24.001726   33.092575
H   49.267403   64.845543   75.873238
H   82.155380   66.037407   18.497229
H   58.949310   96.901939   56.054886
H   65.315193   96.826927   79.237267
H   41.024090   34.408016    6.699059
H    2.035873   38.459072   36.887447
H   54.218697   97.479172   45.531979
H   64.328667   74.449211   66.050720
H   24.091995   28.961445   50.210514
H    1.490492   26.395258    5.073113
H   86.011185   17.041481   23.190018
H   54.845604   92.611122   64.991470
H   29.692093    8.801176   56.382313
H   38.924591   58.026054   97.353455
H   98.912605   49.449055   41.529625
H   87.555382   98.040764   59.344372
H    8.255013   48.005302   76.415161
H   83.565666   19.937357   91.666985
H   24.300018   53.625057   47.481209
H   50.082565   49.452454   74.894333
H   31.750801   61.732628   16.646252
H   43.310097   85.183105    6.729786
H   84.947906   65.451157   66.405678
H   28.112936    7.112859   10.126732
H   13.359823   74.374100   80.209145
H   91.321075   45.199951    0.442999
H   99.103226   15.995448   66.010170
H   56.057907   90.750420    4.875356
H   75.213295   84.688728   89.430534
H   21.097670   40.779449   24.890694
H   55.212162   72.604118   62.112411
H   48.970459    3.114336    1.384684
H   80.247940   53.224754   70.978683
H   24.173876    2.162498    6.727812
H   67.670395   56.436020   27.116568
H   96.847206   84.943916    7.816107
H   74.375244   93.306755   52.418449
H   82.293541   33.597328   56.208652
H   58.872879   94.944534   37.620586
H   68.169449   93.354401   92.792313
H   46.074177   87.750610   93.576408
H   21.122080   80.544647   76.135132
H    5.868994   72.334290    2.166294
H   25.914516   40.049915   99.587746
H   73.328415   44.764732   64.286278
H   56.455387   37.021851   18.797691
H   83.240097   97.526337   83.157745
H   10.692317   92.287483    0.822765
H   43.236088   79.221230   96.056107
H    1.664194   88.486328    8.579945
H   92.758278   45.457214   68.001472
H   83.042809   41.224922   10.267344
H   18.804642   12.994432   34.742710
H   98.626175    8.280081   54.959503
H   52.622814   72.858727   40.605568
H   24.931145   94.981438    9.390528
H    9.219099    9.637339    1.022617
H   92.156982   38.623699   48.589607
H   14.799046   90.507713   99.094582
H   55.385155   90.301102   12.375054
H   48.608051   31.328262   56.161247
H   20.733286   63.792862   17.344379
H   92.835350   37.856335   72.169121
H   52.915779   41.233528   85.296646
H   63.110855   88.174072   62.306683
H    1.018881   48.818253   59.529186
H   58.456200   59.210281    6.599022
H   12.318209   51.544983   93.217621
H   93.616447   20.246082   13.637001
H   40.520775   17.312866   52.705235
H   43.315506   18.274136   58.062675
H   41.187222   93.466942   62.873253
H   57.147457   34.404263    7.960304
H   21.259256   66.756554   23.819981
H   34.123695   76.040085   62.569248
H   21.974804   86.293495   37.775192
H   55.435791   41.640224   62.805969
H    1.199698   88.708977   72.527031
H   90.010239   71.118698   21.689207
H   44.751465   70.637955   48.620972
H   73.661934   74.759644   15.070995
H   28.371275   58.212959   94.060440
H   55.420273   95.929329   55.731949
H   58.222019   57.599174   22.611008
H   37.244347    9.321190   16.377195
H   21.050585   81.521919   53.686897
H   39.608994   69.008781   95.116096
H    8.794238   42.895332   68.778564
H   89.519714   91.796165   18.863688
H   77.511475   99.631401   10.583088
H   44.681679   48.857986   31.733255
H   38.095959   58.532471   99.485283
H   86.671486   87.492546    9.014255
H   27.939438   36.037483   58.571098
H   41.608368   99.757683    4.614580
H   21.710333   50.669922   91.325874
H   16.066368   54.282391    6.308762
H   90.399757   74.856209    8.168315
