100
TIME:    6.099, STEP:  6099
H    4.872227   62.712791   93.562210
H   32.034706   35.359943   62.668392
H   84.599991   12.690589   51.751888
H   82.500305   81.371063    5.855195
H   40.542862   61.619171    0.337238
H   33.441639   94.600594   82.750969
H   33.321995   73.172142   67.402824
H   40.516922   16.243443   48.204472
H    3.702867   99.899292   16.176229
H    8.175024    3.956266   46.518253
H   32.940903   11.648954   52.262444
H   23.058624   29.401783   58.795448
H   54.877029   92.771339   18.994316
H   53.094627   86.277046   21.376392
H   54.684196   25.240082   57.600422
H   56.296494   78.288124   26.770969
H   33.661903   85.372215   28.604376
H   31.491240   98.061905   88.102577
H   40.260456   34.214127   84.681076
H   28.199677   76.292274   31.580866
H    2.353415   49.043163   91.706306
H   47.097412   52.180496   99.892120
H    4.312185   45.019447   57.851074
H   52.373470    9.790010   54.109333
H   11.449491    2.477722   81.582375
H   18.743639   46.358437   16.895222
H   36.155144   88.948746   20.979910
H   17.926147   41.120399   68.375626
H   43.788002    2.441287   68.869202
H   34.855137   39.889671   68.241623
H   56.091019   68.963875   26.845467
H   50.851780   84.002701   34.649055
H   99.961784   22.250288   47.243042
H   35.799644   14.785663   14.810190
H   29.167259   97.881477   96.114716
H    2.813589   63.128624    0.250956
H   64.771523   81.176392   89.042763
H   11.910578   47.340153   52.830120
H   87.631317   48.529228   53.273735
H   88.735764   41.215435   17.890665
H   18.428158   65.451958   86.035500
H   86.223404   65.520370   91.324486
H   63.775097    0.073863   42.011101
H   89.902252   15.014364   77.063316
H   27.613014   91.257217   78.018051
H   99.398674   79.245926    7.939059
H   89.383102   56.522537   84.009712
H   56.565136   58.187698   45.949467
H   43.308693   27.330772    1.181298
H   53.792255   23.562033   57.090889
H   43.082806   80.824234   17.720150
H    1.533140   97.797501   73.674690
H   35.383999   57.372803   48.649097
H   35.452576    7.689784    0.949288
H   55.183647   93.091888   52.224133
H    1.192056    6.118167   85.002441
H   82.901772   13.562835   36.053185
H   71.911530    0.911891   56.459457
H   71.291153   96.466255   43.261787
H   56.546577   96.576752   90.140526
H   44.430561   94.940689   38.869610
H   82.452492   71.173447   19.392883
H   88.121651   91.097939   15.243713
H   61.848320   74.986954   61.555050
H   74.403824   73.727921   63.542362
H   26.674915   39.073631    6.804023
H   98.233841   59.218403   61.522049
H   59.066124   66.345619   57.770069
H   60.877216   11.551079   77.714569
H   53.948082   54.905289   88.890381
H   28.362484   80.424927   88.986732
H   71.075882   49.111099    3.161607
H    9.324738   16.625481    5.367554
H   95.948402   63.411961   40.771172
H   56.227055   37.336124   63.743668
H   69.844749   98.460991   85.543976
H   20.704269   97.924904   98.911797
H   18.522442   51.922455   51.265747
H   53.980816   35.604038   85.728615
H    0.424855   76.778084   95.486961
H   30.220263   92.378616   44.511616
H   98.959808   84.023666   76.759544
H    3.649228    9.115567   10.780874
H   69.750069   34.064110    6.368281
H   55.358681   67.390404   56.522720
H   10.920269   33.079895   65.316269
H   74.493141   59.905800   14.367361
H   54.117699   17.025164   32.340645
H   82.254257   54.589455   78.308846
H   27.104876   58.348362   42.241325
H   73.618858    2.760813   62.261517
H   29.563135   54.182251   49.734909
H   76.411179   10.518651   90.649612
H   36.712276   83.192451   38.045151
H   51.144218    3.417579   56.234379
H   97.673950   54.888519   52.427704
H   78.492546   17.689474   86.430069
H   26.504847   88.237122   56.442413
H   18.170563   63.140690   34.182121
H   18.044100   22.125038   10.204015
