100
TIME:    9.388, STEP:  9388
H   82.450104   61.097237   90.551041
H   41.201981   13.585173   70.049553
H   41.141972   49.313957   13.139305
H   83.052353   45.865471   25.573904
H   11.074678   25.246582   11.159056
H   82.437988   91.037376    8.470618
H   60.943371   95.259972   24.607006
H   82.008011    0.783986   46.219231
H   22.852913   83.673965    9.145693
H   18.338766   51.182774   75.298897
H   27.006134   43.987518   35.447685
H   97.525673   94.262703   24.680668
H   45.108109   93.745781   92.154099
H   90.244278   76.139442   71.671822
H   94.632637   31.450386   99.432884
H   24.052315   90.620041   53.754944
H   69.179878    2.914971   28.015028
H    1.823667   38.018730   74.090897
H   91.488892   72.192749   57.956440
H   39.585819    6.449232   55.511284
H    7.179197   21.612413    2.437408
H   62.417049   56.546692   19.803329
H   60.398872   18.276667   63.748825
H   46.777607   49.135956    9.839241
H   93.816391   41.645538    5.869636
H    3.340288   49.345261    7.428989
H   52.541824   52.230091   86.238449
H   40.409424   94.639816   77.090843
H   15.304349    0.845126   13.396423
H   60.970512   58.486496   29.707241
H   85.532692   63.894863   66.630417
H   58.521351   93.132416   30.169868
H   31.635330   81.611877   43.542137
H   74.767288   13.368433   76.250160
H   47.314430   48.866646   96.225586
H   88.720535   20.741144   89.912483
H   80.230011   60.726326   48.202961
H   75.967461   87.148781   84.926277
H   48.802662   76.868980   34.545090
H   78.948349   33.310005   76.663589
H   93.648636   78.306580   63.521694
H    9.044397   78.418213   59.233494
H   92.080292   19.804745   79.577385
H   79.893471   70.226601   98.643257
H   42.316299   61.502560   59.470379
H   56.945358   41.972546   21.301123
H   15.088719   35.390881   15.586060
H   56.760616   92.063354   49.453403
H   39.449921   54.935261   69.984619
H   22.837629   73.629631   27.123554
H   43.555347   63.346405   51.321365
H   61.385937   92.602188   57.772346
H    3.598442   76.443542   57.633438
H   59.283234   54.033409   46.082222
H   93.307961   81.324554   80.188385
H    5.288502    2.658459   73.037109
H   91.410782   18.659981   48.864418
H   27.005812   90.306068   71.741600
H   30.690536   35.446243   90.768547
H   39.507298   49.381786   96.593544
H   51.905460   41.985424   82.437340
H   65.719444   40.559891   70.579460
H   11.411559   66.662743   89.707123
H   87.697144   92.903412   72.257431
H    4.947943   11.038670   69.832161
H   24.629494   75.568352    1.276225
H   34.352127   72.927917   20.314945
H   31.872513   54.447395   15.003296
H   24.798288   75.224533   71.434814
H   20.690384   20.179926   81.931824
H   23.913788   56.639561   49.540413
H    0.188775   39.882225   44.182087
H   94.876801   53.940266   21.040371
H   23.543804   55.252560   45.350136
H   14.700383   42.138569   13.105974
H   47.597420    9.255088   64.234634
H   19.413479   13.244549   57.242905
H   73.037346   36.869682   32.914230
H   11.703143   25.943203   22.427332
H   39.128563   97.609871   12.136583
H   94.601265   26.405527   41.091393
H   45.763565    5.358429    1.604226
H   11.684950   64.118813   24.008549
H   96.028801   15.510582    5.969252
H   95.213943   61.642975   37.692261
H   35.226711   53.892273   93.714294
H   94.158134   20.768089   71.199226
H    7.013402   53.839272   98.240387
H   50.512943   71.463524   51.409065
H   36.313450   23.028061   59.812843
H    8.218622   80.354446   31.719505
H   72.915833    1.547158   12.407044
H   87.242493    9.200521   44.993034
H   53.879860   82.678207   60.888226
H   94.276657    8.809124   31.810770
H   69.331894   25.009893   82.546387
H   17.427177    6.436851   97.275253
H   20.156298   50.977779   90.412804
H   61.490349   77.341850   58.695095
H   22.336662   37.723316   93.363770
