100
TIME:    3.065, STEP:  3065
H   10.049076   40.945152   96.339920
H   16.011772   70.925446   71.339279
H   32.439346   94.412872   87.360832
H   81.991058    6.371550   72.161194
H   67.718124   18.430767   82.600342
H   80.492561   97.887550   82.283348
H   92.333992   68.302254   30.139931
H   78.983337   53.762608   26.775677
H   78.284386   91.606049    7.155577
H   91.083260   60.392220   27.711832
H   15.156189   89.569611   44.512974
H   38.858757   77.323364   74.759132
H   48.297150   76.270554   20.493156
H    3.320443   95.628670   90.487511
H   17.782490   96.249466    3.439705
H   78.287155   43.653046   78.619484
H   77.638039   84.696548   52.407391
H   66.641685   45.649773   93.285339
H   93.005440    6.932323   24.838694
H    9.943977   40.726246   25.012049
H   82.395279   51.087540   74.051895
H   56.224884   48.152817   58.265213
H   44.821861   69.694771   44.657715
H   34.269821   73.441559   79.440422
H   19.962093   43.089935   59.175514
H   32.605145   36.282642    1.889315
H   97.780121   15.068105   60.788052
H   73.925468   99.503563   68.086449
H   77.816071   27.172552   12.288328
H   18.519165   14.981565   27.046959
H   36.681980   96.900436   66.885902
H   59.283150   67.826393   15.521629
H   86.252045   44.231956   73.916359
H    7.604333   92.833870   42.626831
H    4.582986   27.229767   11.366302
H   39.044460   25.256296   10.104001
H   73.771797   92.288071   49.975277
H   37.309044    2.856077   38.729687
H   15.696998   14.636160   47.290741
H   74.504089   25.247965   79.182594
H   25.780436   61.348766   14.555886
H   56.156425   49.418221   46.797119
H   37.641476   81.879837   22.862099
H   83.638443   64.142334   80.413048
H   90.789574   10.963245   18.391294
H   38.544895   21.376972   95.614143
H   65.679977   91.522308   54.882812
H   56.403103   26.940336   58.222755
H   54.620659   78.605888   22.209448
H   90.163139   77.393944   69.293365
H   43.310780   73.737442   85.733704
H   54.085667   79.330490   72.851189
H   72.457054   39.780640   24.858509
H    5.717350   57.201492   67.066498
H   96.752975   27.192841   26.417082
H   97.401230    9.310783   88.286972
H   90.559807    1.107209   47.494499
H   97.830315   87.435959   34.609329
H   32.006721   68.272430   76.182198
H   56.759262   63.375317   76.434700
H   53.043434   36.035297   75.423691
H   90.131767   99.413498   56.674591
H   82.143623   98.132622   23.294235
H   53.508286   58.467339   43.927181
H   53.978764   16.047237   80.999031
H   13.057289   89.902687   27.410820
H   41.658180   54.325893   15.040389
H   68.645226   92.827271   12.727324
H    9.660307   29.554970   68.002357
H   92.482483    2.302539   95.279114
H   24.705170   86.856865   25.382282
H   21.244184   49.803787   81.027161
H    7.147438   66.697227   83.160881
H   62.741650   55.421173   21.046486
H    9.948220   33.007526   33.746250
H   98.113930    4.009930   89.694031
H   45.237324   60.893906   45.255695
H   75.979599   50.308437   83.708527
H    8.491712   44.515858   51.878563
H   49.212013   42.027637   56.868698
H   70.859268   60.990490   63.176579
H   71.295410   64.244339   30.484526
H   11.721342   58.417084   21.825871
H   61.016140   74.437592   83.476349
H    3.088714   57.168156   50.635017
H   80.750977   21.636162   54.626141
H   71.859138   80.502449   69.694321
H    5.294355   59.903061   63.867386
H   19.290497   23.517740    3.124096
H   95.350983   83.173050   33.784447
H   49.455048   38.932873   98.188919
H    5.070426   26.011339   91.926460
H   81.927109   19.481710   56.025597
H   43.472050   99.147072   33.476151
H    3.597266   75.186066   86.517845
H   47.078033   74.697945    9.137762
H   19.317123   43.574535   60.918678
H   18.117659   42.334320    6.993731
H   62.703911   50.062305   88.310646
H   29.589945   99.982521    2.477925
