100
TIME:    5.646, STEP:  5646
H   35.506020    4.255169   93.976944
H   44.545845   10.811337   34.103596
H   76.809906   80.100067   57.070850
H   82.424271    0.034092   30.686012
H   44.600342   25.309221   12.619356
H   40.467922   95.091362   37.888577
H   57.062054   42.583096   31.977633
H   76.121826   77.052231   89.796684
H   14.838478   43.453568   44.691681
H   20.550024   97.451561   28.780958
H   75.077866   93.421799   95.898430
H   40.349571    6.695457   91.041008
H   83.783981   20.165794   64.006767
H   75.524818   87.673317   86.902977
H   49.175148   65.703995   79.374969
H   74.510223   17.909378   64.373749
H   70.089363   55.408680   87.365997
H   21.803747   20.103416    3.806765
H   33.206524   15.208949   60.813602
H   40.403221   85.914101    0.738587
H   29.235069   94.139709    4.002586
H    3.667862   51.579132   38.469208
H   10.360988   48.703667   70.811508
H   94.463005    4.370821   87.752182
H   27.650276   38.404045   78.236855
H   20.808668   59.750885   59.492462
H   75.218628    7.778596   11.990938
H   56.147968   19.975883   53.401283
H   33.938072   61.341221   90.283295
H   17.486145   51.101311   32.228897
H   38.260918   28.343567   62.685387
H   22.248966   96.520752   76.585564
H   68.054924   55.393929    6.433224
H   16.658291   56.300499   33.893303
H   40.427719   32.125900   68.528992
H   63.434696   27.647926    1.675603
H   21.324207   97.765747   53.348003
H   30.632999   55.631374   20.864506
H    6.751576   58.399895   97.173317
H   31.403673   83.623833   82.250328
H   49.387283   49.909485   75.363014
H   24.400005   63.744423   68.196159
H   59.873142   97.357330    9.291032
H   18.828075    7.410876   32.772171
H   66.906044    9.130885   39.254253
H    5.244595   70.605637    6.098677
H   85.844040   31.887337   79.661919
H   56.540943   53.521942   17.920370
H   30.068314   64.846985   19.252274
H   44.291393   16.667082   88.775803
H   43.113911   24.558832   12.944974
H   79.517799   39.832821    3.411478
H   25.986820   54.746155   74.959068
H   45.941887   15.081552   80.959190
H   91.251671   53.394016   48.370564
H    0.627810    6.594679    0.423634
H   54.182632   26.634026   92.968941
H    5.643067   43.692879   68.127304
H   35.564583   77.326286   78.037224
H   86.441116   61.759617    3.024910
H   15.854424   16.007198   74.188652
H   98.530342   75.389908   39.891106
H   57.368389   22.010229   46.307281
H   30.739891   72.519287   73.852600
H   56.423653    9.907112   21.356577
H   54.503227   61.593681   80.018913
H   34.579803   43.558743   39.651749
H   90.357796   40.438572   36.114048
H   38.298412   44.100777    6.124423
H   44.772095   32.119118   89.844269
H   42.747276   11.246876   94.419746
H    8.429062   64.145203   69.996536
H   38.862030   39.031479   16.983559
H    5.920788   92.083824   67.687401
H   34.387859   36.689831   29.403572
H   59.136131   69.429619   16.025640
H   79.575554   37.188259   90.900520
H   97.239670   81.542778   26.246927
H   32.259129   36.934643   80.675774
H   22.639164    1.454703   34.513214
H   21.355326   87.692123   17.437334
H   64.958542   81.085968   14.652820
H   74.997643    1.540328   67.640976
H   38.585632   95.299240   47.741627
H   77.415611   95.723640    0.436122
H   21.347370   16.440315   33.858704
H   44.238304   92.842583   92.766510
H   46.832207   53.275646   37.037506
H   72.853622   79.812187   82.013802
H   67.157318   76.984787   26.048788
H   55.080254   78.298645   52.694988
H   96.045723   20.112467   41.104988
H   47.372894   96.926582   55.618427
H   92.932076   55.709423    7.500236
H   58.975777   43.995785   45.824558
H   60.258041   72.777374   75.825607
H   14.449621   91.693214   12.482686
H   27.379244   65.820755   65.536034
H   39.750549   61.187984   72.126076
H   89.906158   33.749424   53.844273
