100
TIME:    3.190, STEP:  3190
H    1.596035   29.481987   96.225479
H   12.534437   77.702255   79.224258
H   34.587975    3.405859   85.894081
H   82.012039    1.221236   65.309998
H   66.598511   28.450069   79.210983
H   78.554695   97.752129   94.662041
H   85.782249   76.742271   39.915092
H   69.158585   64.576370   15.298222
H   75.211647   79.587845   99.287117
H   87.667198   62.187035   32.607040
H    3.528994   94.599289   32.472836
H   34.087524   83.589005   65.861351
H   40.346367   68.707916    8.069317
H   97.131218   95.243385   99.999458
H   19.303123   85.083847   97.431190
H   73.261292   32.720123   68.243507
H   67.586311   92.964905   63.786633
H   69.311974   39.571053   88.951843
H   94.952843   12.176555   31.423815
H    6.576553   38.072170   33.522636
H   74.977600   38.643044   70.658722
H   68.208755   48.318756   47.620300
H   43.152931   68.678154   41.081436
H   22.655975   74.940735   70.157356
H   15.491717   33.176491   60.098671
H   32.031986   32.558544   90.172585
H   87.001694    9.871772   63.268559
H   63.377888    5.338104   72.217766
H   80.534042   38.513443    6.379806
H   23.311855   11.887607   36.984009
H   41.601986    8.109414   56.996300
H   67.175758   64.372185    3.949787
H   95.056366   35.086220   85.177345
H   12.886020   81.378334   37.360641
H    1.475601   17.780762   18.977577
H   49.912533   35.075954    9.674371
H   85.761391   87.710434   59.824825
H   32.142990    0.568313   47.550220
H   10.420556   11.912943   35.177170
H   62.730129   13.545854   89.016884
H   17.237898   65.637802   17.500715
H   44.922142   55.028687   52.669846
H   38.718174   82.629425   31.891010
H   75.656189   66.236603   92.635338
H   79.946297    6.031557   29.088182
H   36.932232   23.761158   96.121498
H   66.656540   98.320099   56.083488
H   56.409779   28.227320   65.957054
H   58.274185   68.252800   17.223162
H   92.783836   79.295570   60.550457
H   43.301243   61.669647   87.051682
H   60.160572   67.731903   64.645775
H   75.049141   40.505432   17.598663
H    2.822948   55.161583   72.582550
H   86.800430   38.147697   27.479952
H   97.557632    9.179220   84.031677
H   98.484840   97.500359   59.383003
H   88.522453   75.631378   31.389633
H   41.864853   73.553879   66.586327
H   48.510933   72.982697   72.879402
H   60.928413   30.222652   65.677139
H   85.695274   98.250015   51.018349
H   90.629417   89.602959   14.722610
H   62.092308   59.147308   40.533054
H   58.940731    6.063484   92.639580
H    5.378501   83.688545   34.801498
H   31.629322   58.646992   21.075716
H   60.010658   99.976013   18.703047
H   15.890423   20.573265   60.162685
H   95.015442    8.589767   95.015900
H   20.735500   78.351997   23.882629
H   10.937467   45.655304   90.178619
H   98.996994   60.514141   79.956535
H   59.990299   47.510445   13.617363
H   15.974727   33.185863   43.221958
H    1.068697   12.021330   81.282623
H   56.587002   50.059212   47.466312
H   81.852325   42.134495   90.611221
H   14.485793   44.148693   53.273788
H   43.081795   35.219357   46.099808
H   73.304489   62.283672   70.647659
H   80.673843   65.060684   20.031778
H   19.630033   60.503723   33.731541
H   69.616043   85.134003   72.058960
H   97.002213   49.348980   38.517632
H   77.874695   26.227627   63.306484
H   80.207603   71.413933   75.654785
H    7.306131   49.895203   62.567528
H   21.884968   16.558302    2.101399
H   84.299805   78.030838   38.252411
H   54.570557   45.682026    0.828704
H   14.319874   35.411705   94.308739
H   89.939880   23.232512   65.692039
H   55.554150    6.729278   41.903770
H    1.435875   63.989925   89.390312
H   57.402512   69.761726    2.681149
H    9.395413   50.748074   53.729881
H   18.576376   43.398621    4.993637
H   56.749168   50.601131   77.841209
H   37.353809   96.774361   90.436691
