100
TIME:    0.284, STEP:   284
H   98.117104   95.977150   98.886002
H   93.370216   20.142761   95.915192
H   84.643951   94.336266   20.005241
H   81.524277   20.949530   24.595907
H   92.627289   95.521378   58.004723
H   23.612419    0.904552    6.870592
H   38.086071   80.514977   12.661862
H   97.564453   13.172129   82.118294
H   46.646736   58.987961   82.210640
H   67.079323   20.464241   18.810373
H   73.838043   77.669937   12.393501
H   45.001904   37.926003   72.713707
H   25.197491   44.525070   96.901970
H   41.019917    4.201630   78.852913
H   83.956947   44.654472   37.120708
H   90.104614   86.896614    9.465229
H    1.233352    0.778470   99.212639
H    7.213595   80.889648   89.700485
H   49.686630   90.266785   78.324341
H   84.961769   99.577271   35.563072
H   47.423584   27.944252   49.533768
H   89.579506   44.474785   95.073128
H   81.952217   92.312462   24.224930
H   92.654831   40.087894   85.982559
H   19.425852   63.651188   38.655594
H   45.356678   19.147308   62.553337
H   37.589024   30.671085    5.601851
H    8.578224   69.695343   76.162857
H   17.346634   74.858757   43.746979
H   11.883674   83.810715    5.966124
H   27.273500   47.510139   86.938591
H   83.689362   44.664116   72.972786
H   90.362244   47.703163   23.381918
H   90.101601   47.695740   59.786705
H   73.712563   37.452042   42.021614
H   97.247429    6.795237   19.667128
H    7.038665   94.134621   30.843273
H   52.250778   53.756222   42.482006
H   37.952747   74.445427   14.906211
H   36.443951   85.596169   60.379646
H   15.833881   65.923439   49.030598
H    6.096878   24.603205   16.142782
H   13.687606   65.203003   21.987041
H   61.224045   17.531179    8.499947
H   32.020897   20.686611   80.409973
H   74.324303   68.543022   84.431999
H   39.078846   41.061436   30.049994
H   56.254581   98.306747   86.150269
H   73.329826    8.928982   33.144791
H   31.846174   35.072056   63.800209
H   43.522953   42.225487   56.411335
H   18.934702   37.385750   55.418938
H   14.770317   23.655457   86.375954
H   70.109985    2.568274   44.348103
H   18.149895   83.401978    2.816025
H   93.921585   12.233509   82.958771
H   14.256823   81.352150   82.998146
H    4.911990   50.066429    6.239561
H   12.675995   50.768555   89.680679
H   40.277145   49.617714   55.531944
H   77.615494   65.361801   92.253204
H   88.831421   25.301926   82.504974
H   93.496162   87.786568   14.074622
H   62.542328   43.339371   19.429602
H   43.594765   38.161518   22.009214
H   83.898872   28.154652   62.978161
H   64.782799   58.179295   80.773544
H   60.747963   33.780014   79.779442
H   71.058067   29.379890   42.420971
H   36.139702   62.429596    1.133556
H   13.013983   76.081108   58.741276
H   50.549427   42.100166   77.415352
H   88.474106    4.259968   54.467304
H   23.939896   31.407290   86.329643
H   75.863693   29.047796   22.927204
H   32.372387   25.773924   76.819412
H   92.740173    1.928904   96.058289
H   45.323166   32.150356   30.124302
H   75.166405   52.669476   20.855156
H   85.597580   93.486885   96.454407
H   16.439449   32.219769   96.963013
H   62.632893   46.082291   63.032806
H   35.765575   11.997645   56.949432
H   69.707367   36.463840   37.489906
H   38.501663   31.119492   20.221722
H   44.757114   19.485506   61.505108
H   86.122429   82.703804   37.085384
H   60.527008   82.556374   92.786690
H   61.576851   78.359673   25.877266
H   41.226295   97.601303   34.364452
H   35.645023   88.766754   39.459301
H   99.299751   16.865690   38.935570
H    3.506382   36.140747   40.886040
H   74.677956   30.458914   45.966908
H   51.681797   24.290447   22.612759
H   17.378860   84.516594   52.780006
H   40.059471   83.978661   20.855904
H    7.907936   18.655762   51.491394
H   95.183098   38.074505   21.262745
H   56.878857   71.409050   70.332748
