100
TIME:    4.295, STEP:  4295
H   26.868607   28.147858   95.213821
H   81.858315   37.603813   48.919868
H   53.581848   82.903786   72.928001
H   82.197510   55.696526    4.738734
H   56.701126   17.020693   49.249054
H   61.422688   96.555000    4.093912
H   27.869804   51.357487   26.327600
H   82.307762   60.173008   13.840733
H   48.048637   73.346619   29.731634
H   57.469215   78.053200   75.878387
H    0.744597   39.061039   26.033680
H   91.911476   38.976662   87.206596
H   69.994308    1.862408   98.249268
H   42.417397   91.837471   84.091461
H   32.745293   86.380890   44.316036
H   28.832355   36.072746   76.518494
H   78.728737   66.050232   64.379143
H   92.917320   85.834694   50.640797
H   12.164440   58.535767   89.639999
H   76.801964   14.607016    8.756144
H    9.405319   28.636509   40.669632
H   74.146179   49.785660   53.519348
H   28.399590   59.691261    9.464562
H   19.989494   88.193451   88.088806
H   75.970490   45.545097   68.259377
H   26.967287   99.682510   86.536064
H   91.716133   63.941288   85.188087
H   70.141418   56.915787    8.740121
H    4.561229   38.767696   54.144966
H   65.682587   84.538231   24.828506
H   85.090752    7.196927   69.572212
H   36.946026   33.845314    1.654404
H   72.892189   54.239479   84.724472
H   59.575607   80.111664   90.810280
H   74.008942   34.251152   86.264038
H   45.994419   21.832005    5.925295
H   91.745499   47.244125   46.894459
H   86.471855   80.351799   25.527958
H   63.781544   87.837578   28.094553
H   58.651657   10.099404   75.956665
H   41.718506    3.557382   43.534039
H   45.611008    4.618982    4.584507
H   48.236187   89.255783   11.706600
H    5.094628   84.749939    0.677467
H   84.095955   62.430328   23.645643
H   22.676289   44.837360    0.607455
H   75.289352   58.414696   66.695320
H   56.468792   39.607071   34.328163
H   90.578293   76.737335   73.146240
H   15.956592   96.105949   83.266335
H   43.216938   54.989098   98.702606
H   13.861647   65.196365   92.102570
H   97.963188   46.912598   53.423267
H   77.228935   37.128784   21.342621
H   98.820221   34.991787   36.877911
H   98.940231    8.015814   46.414871
H   68.534912   65.616280   64.477684
H    6.241210   71.277840    2.925063
H   29.014227   20.243156   81.754051
H   75.592422   57.917103   41.450569
H   30.633005   78.834007   79.523506
H   46.476677   87.964828    1.017677
H   65.649254   14.199792   38.949425
H   37.969376   65.159866   10.528973
H    2.797388   17.809109   95.543343
H   37.496376   28.755531    0.137722
H   42.972946   96.852753   74.424667
H   83.680641   63.172928   71.528435
H   70.965683   41.175018   90.857269
H   17.403433   64.170410   92.689087
H   85.646309    3.167711   10.625698
H   19.825043    8.982308   71.082542
H   26.949808    5.859333   51.626434
H   35.660595   77.584114   47.959404
H   69.249031   34.762363   26.988482
H   27.193773   82.842369    6.931074
H   56.913849   54.285076   67.008171
H   33.767239   69.882133   51.637718
H   67.471977   40.902958   65.606483
H   88.890198   75.039864   50.903099
H   94.920242   73.715408   36.690487
H   63.585274   72.277176   27.632612
H   89.540932   78.949615   38.977581
H   45.638832   79.691353   71.134323
H   43.198883   80.230339   31.400238
H   52.444530   66.819206   40.041138
H   54.008064   91.071426   28.345808
H   25.090231   61.426140   51.076782
H   44.817734   55.033272   93.063240
H   86.602921   32.567856   77.752151
H   99.791656    5.349943   24.164347
H   96.082932   18.506920   15.366018
H   60.771324   56.389595   51.143475
H   62.356815   73.757233   16.408819
H   82.332146   65.010704   14.781690
H   48.670990   26.126125   45.606697
H   21.685432   14.161679   90.179321
H   22.631437   52.807037   87.308250
H    4.109324   55.364353   85.285561
H    5.990868   68.414223   83.989319
