100
TIME:    2.087, STEP:  2087
H   76.187164   30.632706   97.235306
H   43.216576   17.898195    9.647400
H   15.628477   24.050896   98.836693
H   81.826904   46.666283   25.767200
H   76.477982   40.039768    9.118038
H   95.654427   98.947090   85.428459
H   43.590366    2.260888   53.658974
H   55.852211   69.153107   16.572083
H    2.325521   85.636780   68.719002
H   17.808035   46.349586   89.413933
H    6.127365   50.217411   38.719120
H   76.186447   28.300997   44.373741
H   10.508817   35.441109   17.698372
H   51.745399   98.643135   16.061230
H    5.885217   83.608154   50.453064
H   17.611031   29.192574   59.802505
H   56.275772   20.013649   63.369301
H   45.742836   93.209679   27.193607
H   77.768959   65.907623   73.312729
H   36.290703   61.491734   58.425301
H   40.431091   48.450466    0.599990
H   62.463017   46.854538   41.550934
H   57.879570   77.648781   72.638519
H   25.136635   61.712009   52.076149
H   54.940544   20.656189   51.960197
H   37.089535   65.420349   93.557823
H   82.114799   55.724567   41.380566
H   56.446167   53.853817   35.756504
H   56.550659   38.440651   58.518486
H   81.018517   39.186905   49.298855
H   98.198402    9.197435   44.266827
H   97.531769   94.852119    6.060010
H   17.362774   15.787476   85.810394
H   66.281929   82.461716   83.829498
H   28.895695    1.158813   51.811165
H   54.011272   48.429386   13.465428
H   79.969116   28.106382   72.912781
H   77.730782   20.756062   69.714226
H   56.981728   35.943298   42.066124
H   66.620445   16.805052    2.234564
H   92.618355   27.793718   91.513351
H   44.053528    5.522327    0.850938
H   29.217390   76.015060   52.218887
H   46.089806   47.749374   84.789597
H   75.623146   49.547153   34.700966
H   51.162373    2.723103   91.644600
H   58.033535   38.336395   45.488724
H   56.350872   16.870977   97.709694
H   26.035467   59.603031   61.224945
H   69.658806   62.514874   37.696804
H   43.385395   68.157112   75.421844
H    6.557604   70.081863   37.054562
H   52.172218   34.109863   81.660484
H   28.363148   73.157463   23.909605
H   74.614731   41.462650   18.115370
H   96.177536   10.338612   21.580399
H   28.558611   29.327721   54.478539
H   70.654633   79.796051   59.799515
H   54.873192   26.949919   51.263794
H   21.298717   88.201401    4.251117
H   91.349899   81.516304   51.676037
H   24.840218    8.518318    0.922942
H   15.792353   64.835564   90.381760
H   86.350098   53.147255   70.481010
H   15.157947   94.158539   89.919449
H   73.137581   38.522011   69.585075
H   20.124754   20.516352   67.822647
H   36.202522   36.895508   65.973267
H   60.919777   99.827827   29.339386
H   72.664612   53.114143   97.338501
H   55.761009   53.400322   37.117161
H    1.885007   82.261520    9.421640
H   70.915268   15.075581    8.234066
H   84.261192   17.309694   79.171944
H   62.792450   31.613253   59.606792
H   74.998055   41.329933   55.500042
H   56.441750   45.659988   27.958956
H   30.031384   14.256422   29.697102
H   61.589973   47.388523   40.962318
H   97.174843   95.291245   41.124214
H   51.723072   50.872631    4.724192
H   97.912445   57.857254   12.263700
H   49.847401   42.091217   28.676212
H   93.736397   90.748878   72.805481
H   50.710159   18.340546   45.441147
H    3.255953   85.713982   86.710777
H    6.540747   51.611023   23.059645
H   89.551743   38.204178   74.044838
H   98.992622   77.971535   11.125309
H   81.819870   23.410057   98.824120
H    9.431305   86.123383   77.535355
H   32.704723   52.466900   73.287514
H   19.189838   90.166428   80.371017
H   48.944805   39.824726   67.533073
H   20.508621   62.789902   64.043663
H   66.299225   13.318258   59.652695
H   96.946457   87.449272   17.164261
H   14.527890   34.007233   22.643253
H    9.293444   45.846531   70.231674
H   68.851089   25.096504   96.677521
