100
TIME:    5.796, STEP:  5796
H   25.362352   90.499504   93.839615
H   40.403084   18.939894   43.562138
H   79.389404   90.891846   55.309605
H   82.449448   93.854279   22.464005
H   43.256805   37.332382    8.552412
H   38.141338   94.928856   52.744152
H   49.201107   52.712261   43.707829
H   64.332123   90.029831   76.024864
H   11.151192   29.031723   35.249161
H   16.452089   99.605339   34.654575
H   61.125229   99.457413   81.449120
H   34.624092   14.213940   80.363670
H   74.212143   11.094635   49.101982
H   68.097603   87.210976   98.317314
H   50.999336   52.305252   72.165192
H   68.479187    4.789626   51.922577
H   58.027290   65.329720    1.021090
H   25.011526   12.804947   98.606972
H   35.542263   21.502054   68.716431
H   36.362312   82.728065   10.951197
H   20.333855   79.207458   99.931358
H   18.048508   51.778259   25.695312
H    8.357985   47.483727   66.519974
H   80.526390    6.165255   76.612503
H   22.285858   26.507912   79.344643
H   20.124884   55.316299   45.387619
H   62.284363    1.543114   14.967260
H   43.491947   26.977379   58.360008
H   37.199638   74.950531   83.192535
H   23.237373   47.388847   44.153641
H   44.164925   41.793964   50.817863
H   31.720097   92.375702   62.699303
H   78.620110   44.419044   19.946409
H   22.996601   42.553856   27.574278
H   36.699234   20.786528   77.663666
H   76.474091   39.396645    1.203856
H   35.710999   92.272583   65.167458
H   24.433735   52.885937   31.449146
H    0.419742   55.131462   82.637032
H   17.275370   69.581932   94.051476
H   39.135666   55.055893   78.896950
H   11.758765   64.332153   75.854546
H   61.165180   98.256836   20.125549
H    9.250313    9.928610   47.437775
H   53.895000    3.212869   52.089947
H    3.308944   73.466660    6.708075
H   87.015915   40.044693   81.101585
H   56.548954   55.066895   27.201529
H   34.452545   52.424347   13.268600
H   47.437374   18.950178   78.283859
H   43.103611   10.076906   14.526261
H   86.807686   25.913624   93.564613
H   29.098469   55.615906   66.247826
H   42.468605   12.633946   87.578453
H   79.308617   66.539627   49.646580
H    0.814653    6.436893   95.317276
H   63.691528   22.305870    7.235275
H   94.473785   29.527281   64.263779
H   47.394341   83.664024   66.522179
H   76.541977   73.288620   98.758568
H   25.316967    9.031738   62.492939
H   93.206551   73.993729   33.103615
H   67.552086   11.774179   36.021332
H   41.040649   73.336395   69.780792
H   62.378014   97.926865   35.325672
H   45.288445   54.136711   88.888084
H   22.544746   48.744061   46.893570
H   79.996315   49.017063   43.284916
H   45.774837   33.322731   96.716797
H   47.810501   39.664207   89.528412
H   37.984245    1.040752   92.620735
H   96.060806   59.167023   80.978287
H   29.081738   31.612274   13.137199
H    2.619137   82.589806   58.774742
H   41.619381   36.903835   40.774551
H   62.682655   79.042656    5.932780
H   93.194023   24.186972   93.553261
H    4.286952   71.735191   34.531303
H   39.451740   36.494045   82.348900
H   15.283808   93.283669   21.590466
H   24.290735   89.243942   26.402063
H   76.217239   82.058716    2.105164
H   84.484795    4.048659   81.925491
H   48.904770    8.135120   34.041904
H   70.111992   86.341774   85.895264
H   17.894688   21.950073   44.275116
H   54.256462   81.936363   99.919067
H   49.244621   41.271938   35.482254
H   75.966415   71.460289   80.786995
H   53.895031   70.814133   31.410917
H   61.218864   86.398773   55.862713
H    7.144205   31.393480   43.962578
H   56.988220    1.426746   67.218155
H    7.429085   64.809761   17.614290
H   56.382545   30.559277   49.271519
H   72.647415   66.853912   68.077957
H    2.543474    0.301451    3.855844
H   27.089708   73.243393   62.524513
H   32.604858   61.834576   59.562347
H   99.223938   29.900463   39.393818
