100
TIME:    0.125, STEP:   125
H    8.869430   10.558158   99.031570
H   97.793083   11.522053   85.885498
H   81.912109   82.896980   21.872162
H   81.497589   27.500734   33.311325
H   94.051437   82.776825   62.315987
H   26.077991    1.077604   91.124504
H   46.418674   69.779274    0.227648
H   10.061544   99.416809   96.716423
H   50.555260   74.275116   92.218498
H   71.424553   18.181843   12.583666
H   88.627838   71.272186   27.709164
H   51.070911   29.956108   84.031685
H   35.311295   54.144745   12.705222
H   48.892765    4.691863   66.753716
H   82.023308   58.855927   44.764286
H   96.497070    0.803841   22.663700
H   14.016354   90.263557   84.735817
H    3.815931   88.621780   95.212692
H   47.210747   83.597305   69.946854
H   89.265755    2.911329   24.715769
H   56.858871   43.773651   53.848671
H   74.333595   44.264923    8.611702
H   84.075096   93.605598   28.774563
H    7.427717   38.180943   97.790619
H   25.112135   76.259911   37.481339
H   46.082096   23.888599   77.454735
H   51.300396   37.281002    2.446798
H   21.993607   62.273754   70.907822
H   13.889188   60.432888   51.263184
H    5.787069   87.745926   93.326134
H   21.018892   33.251671   99.520592
H   73.649963   49.056656   87.692223
H   79.163147   59.336540    9.057942
H   83.383598   62.267181   66.485298
H   77.664757   49.471176   32.340073
H   83.423241   94.305107   20.214224
H   91.788689   99.956932   18.314407
H   58.821999   56.666386   31.262285
H   45.101391   77.839607   30.146034
H   51.419346    0.480613   47.869217
H   26.699383   60.467815   45.283413
H   20.386887   17.466692    8.672971
H   12.318349   64.249527   10.502411
H   71.377472   14.866662   92.953506
H   45.812332   26.960022   66.804138
H   76.354988   65.554008   83.808479
H   37.399952   32.483791   28.691351
H   56.246090   96.669098   76.312241
H   68.681328   22.096897   39.487953
H   28.511435   32.651974   74.921646
H   43.531490   57.576675   54.741062
H   11.208028   52.140366   65.857224
H   11.472273   22.733521   95.609871
H   73.790451    5.162735   37.331684
H   30.808319   69.463760    1.466859
H   93.722641   12.400913   88.371506
H    4.177090   85.939995   67.875969
H   16.751951   65.081856   10.335201
H    0.136429   44.050552    1.886725
H   50.772591   37.395950   60.048096
H   67.585800   72.756699    4.650468
H   94.474640   26.781876   89.698502
H   82.711937   98.629021   24.982635
H   51.623451   42.474449   23.746931
H   37.283142   50.861187    7.201828
H   93.666542   36.059040   53.576839
H   77.539482   52.682858   73.097214
H   71.731133   24.686325   72.178322
H   63.134140   40.804619   52.393650
H   32.918991   54.431801    1.467909
H   18.063402   86.899300   60.648228
H   63.659115   47.377037   65.774696
H   98.841034   12.124325   58.544445
H   27.439613   41.469700   95.779488
H   68.197067   28.821558   10.873626
H   28.613073   15.583498   87.518723
H   78.304596   15.709972   93.243958
H   37.853058   42.546879   21.343201
H   67.545876   53.134083   19.082249
H   93.395218    2.145971   10.152285
H   13.328176   30.574316   87.459793
H   50.702869   45.043900   76.328186
H   25.705177    9.343743   41.805420
H   58.769714   22.858006   52.012825
H   46.244209   41.066147   35.634834
H   48.420597   13.641524   50.464924
H   75.503181   94.264397   29.503674
H   57.967422   95.286369   94.438896
H   58.277290   87.212685   27.178288
H   55.283394    4.143900   28.680342
H   29.138094   80.180618   36.101513
H   87.535362    4.907815   35.906525
H   93.304619   31.376928   28.585302
H   59.310364   20.814371   35.246975
H   54.430622   38.533146   18.959587
H    4.246081   90.795464   60.992516
H   52.680290   74.853920   30.000053
H    7.324296   17.301971   54.035210
H    2.757418   37.389118   34.581081
H   47.004436   75.492256   85.646591
