100
TIME:    7.572, STEP:  7572
H    5.259094   27.632118   92.213638
H   91.357010   15.178691   55.545071
H    9.926699   18.663868   34.456455
H   82.747543   20.684284   25.115185
H   27.347353   79.686531   60.397064
H   10.595250   93.004784   28.626320
H   56.120365   72.636200   82.593414
H   24.742027   43.675701   12.957347
H   67.493660   58.276474   23.456059
H   67.941505   25.107698    4.192522
H   95.926041   70.918472   10.376493
H   66.841080    3.235971   53.945625
H   60.908424    3.663265   72.621574
H   80.161247   81.736855   33.472790
H   72.575508   93.664474   86.764679
H   97.068817   49.454224    4.498472
H   15.212025   82.799591   62.697384
H   62.991627   26.385315   37.042595
H   63.197414   96.006607   62.282475
H   88.514694   45.012234   31.869547
H   14.943497    2.400078   51.724606
H   88.315353   54.135925   74.452545
H   84.645088   33.039635   15.706054
H   15.509596   27.411348   44.711472
H   58.765938   85.662521   92.460854
H   11.904720    2.880516   78.324074
H    9.136515   27.717321   50.210201
H   93.638664    9.875052   17.061956
H   75.816582   36.082752   99.240379
H   91.337814    3.432312   85.341148
H   14.060668    1.052068   10.306465
H   43.857906   43.304028   98.286125
H    3.717833   14.478903   79.942513
H   98.036232   79.794136   52.754608
H   92.509377   86.363396   85.738358
H   30.858345   78.500183   95.620735
H    6.052694   27.233023    5.109363
H   51.026573   20.379955   56.775291
H   25.455189   16.435946   10.529457
H   49.995255    3.317557   33.783447
H   17.758989   15.997548   20.737516
H   62.087029   71.296753   66.522545
H   76.451874    8.910057   48.406406
H   95.846634   39.738182   21.085712
H   99.841286   33.139744    4.066166
H   80.383812    7.339993   13.923346
H    0.891454   36.629829   98.147240
H   56.649776   73.359131   37.089977
H   86.367683    5.337810   42.424232
H   84.715576   45.984119   54.098839
H   42.981663   38.616135   33.246033
H   73.127670   61.114246   76.982086
H   65.939674   65.913757   63.100380
H    1.344948   83.660019   65.947769
H   37.901413   22.178520   64.753937
H    3.026676    4.568714   34.858047
H   76.283142   71.059517   76.147621
H   62.228928   61.805458   18.517641
H   87.460640   58.712719   30.183632
H   59.343643    9.796514   48.244896
H   37.348614   26.438950   24.023582
H   30.172859   57.462967   52.746330
H   88.123726   90.583038   14.235687
H   62.996769   83.010956   21.558659
H   32.867844   56.082066    0.715931
H   36.187378   65.846794   93.899582
H   80.052551   10.146940   32.639141
H   57.315941   50.588432   28.187988
H   34.289703    5.710693   85.330078
H   83.808144   28.966516   85.783508
H   81.586876   80.203125   71.320442
H   49.731174    0.179108   11.071248
H   13.282396   43.769978   67.606018
H   63.515423   70.186523   53.250793
H   27.221571   39.464558   75.415863
H    4.661617   92.866844   86.429756
H   54.482136   70.425484   25.031572
H   87.726654   55.606869   32.612919
H   24.618513   31.277370    2.159861
H   28.186684   96.536247   68.586647
H   59.049385    7.618173   32.550995
H    9.493863   93.576187   53.530079
H   96.820274   33.748692   51.062759
H   71.089912   60.111691   71.831322
H   83.636429   75.246178   13.732417
H   77.022873   87.186523   67.605850
H   72.871544   52.806389   84.605476
H   77.807610   99.154602   17.068069
H   12.823873   72.575493   66.261604
H   96.871826   97.741714   94.898407
H   33.900166   82.297401   93.368576
H   38.550220   64.966110   77.801964
H   70.833313   54.718090    4.558963
H   79.070320   72.557335   37.367062
H   25.677292   71.476669   90.083527
H   19.337784   96.722595   76.345192
H   61.572533    2.221424    1.715749
H   23.661608   61.120342   26.874002
H   48.000359   69.499931   10.802334
H    9.538149   84.323654   68.306305
