100
TIME:    4.726, STEP:  4726
H   97.722816   88.623116   94.819229
H   69.954781   60.960388   76.095947
H   60.990318   13.911448   67.870644
H   82.269852   37.939873   81.115364
H   52.840698   51.567245   37.562546
H   54.737637   96.088066   46.778088
H    5.281382   80.460098   60.032360
H   48.432014   97.461639   74.268837
H   37.453835   31.907852    2.601364
H   45.690636   84.241722   92.753784
H   60.654022   56.403370   84.517044
H   75.463554   60.580589   56.527046
H   42.491226   75.799477   55.422852
H   21.077374   90.509010   16.890322
H   37.986794   47.881836   23.597321
H   11.501534   98.375687   40.742126
H   44.070381   94.559525    3.614774
H    2.130386   64.864922   35.698193
H   18.877441   76.615662   12.347109
H   65.187798    5.454119   38.100655
H   83.829185   85.729034   28.972832
H   15.466568   50.357819   16.815689
H   22.645119   56.185966   97.132919
H   79.944870   93.362610   56.079979
H   60.555084   11.363541   71.442421
H   25.002546   86.943756   46.006321
H   54.551277   46.023510   93.737587
H   33.775898   77.033417   22.987772
H   13.933618   77.871788   33.770851
H   82.209427   73.871086   59.091927
H    2.051926   45.844822   35.472862
H   64.159737   21.938492   61.754555
H    3.249750   22.705465   23.552359
H   77.786041   40.612976   72.652458
H   63.295761    1.670620   12.509445
H   83.460953   55.589375    4.569295
H   33.084183   31.460377   80.855698
H   68.656013   72.466530   55.941158
H   45.587551   78.446281   86.328003
H   18.057409   69.751732    9.865778
H   12.263294   18.344847   53.688213
H    6.874724   23.962873   24.831789
H   51.948643   91.840363   42.837601
H   77.572067   91.970978   42.818703
H   46.709858   45.426689   60.527241
H   17.115826   53.058033    2.359556
H   78.656540   81.853477   70.831963
H   56.491810   44.046234   60.996025
H    3.178203   41.042004   55.953629
H   24.996044    2.664091   53.120674
H   43.184055   13.378605    3.246411
H   34.806496   25.201525   63.810280
H    6.902829   49.411682   28.389914
H   67.245750   30.095177   40.361046
H   64.503845   72.764900   40.544331
H   99.479507    7.562429   31.742615
H   95.860428   53.180046    5.469340
H   74.147842   30.575586   91.823593
H   63.005066   38.454651   48.665962
H   47.150845   91.043732   29.191902
H   57.820496   58.789577   45.919167
H   31.179739   83.953140   81.518097
H   94.908272   84.789108    9.394463
H   67.566689   67.507690   98.826355
H   19.904734   83.386566   35.681263
H   11.019905    7.329489   25.621328
H    8.392385   11.753457   95.232834
H   53.908653   87.821793   92.132729
H   92.444656   10.206100   63.827675
H   26.135431   85.846680   91.781525
H   71.960533   73.842834    5.455098
H   84.286652   94.678040    2.636926
H   98.846771   84.539101   40.574562
H   26.170727   50.309559   22.350395
H   90.030891   35.377270   59.660976
H   37.384117   10.464571   77.929062
H   96.044846   16.927715   74.630379
H   54.016399   41.699062   75.439919
H   88.142036   39.636974   70.413933
H   67.753204   51.566456   13.772015
H    3.352486   78.174301   62.450787
H   95.922157   75.091934   91.591942
H   16.804087   86.154724   80.024475
H   75.290405   16.572966   31.769859
H   22.212381   53.271797   89.619789
H   42.523823   82.648933   69.970963
H   82.793571   59.734222   48.897491
H   32.026840   26.919287   46.594872
H   53.761826   31.035551   89.538216
H   48.497120   14.834221   93.160980
H   17.430107   28.622620   33.266277
H   27.975039   50.919449   23.578436
H   88.399361   69.323708   84.473373
H    4.013000   99.898972   45.468136
H   74.880928   26.403221   24.684414
H   84.269791    9.107355   23.345116
H   87.474937   38.895977   65.392349
H   24.213095   56.476746   80.409462
H   83.577454   57.222225   49.185593
H   32.760944   57.354465   42.469929
