100
TIME:    3.735, STEP:  3735
H   64.739410   79.502838   95.726517
H   97.373695    7.249779   13.602381
H   43.955994   42.614479   79.499046
H   82.103516   78.767815   35.434803
H   61.716995   72.134224   64.433380
H   70.105598   97.161690   48.635956
H   57.217640   13.542004   82.534798
H   26.322662   11.727479   65.259651
H   61.814507   27.188477   64.983452
H   72.773170   70.012428   53.950157
H   52.834427   16.528080   79.974998
H   13.284950   10.906790   27.067289
H    5.679650   35.734818   53.899818
H   70.145668   93.563545   41.475681
H   25.933086   36.401749   71.235664
H   51.348526   85.052238   23.003836
H   23.760780   29.012035   13.400137
H   80.954430   13.067718   70.057800
H    3.442491   35.041504   60.134945
H   91.892296   26.499411   70.628807
H   42.636520   84.386292   55.866776
H   20.458435   49.042252    1.208544
H   35.876396   64.245705   25.487991
H   72.019524   81.477142   29.679661
H   95.999786   89.954834   64.123634
H   29.530962   16.319468   39.089180
H   40.005627   87.217667   74.079689
H   17.393682   30.776871   90.230309
H   92.384399   87.960617   80.617134
H   44.209198   98.398094   80.310577
H   63.053211   56.979473   13.877632
H    1.587498   49.315895   53.496391
H   33.445522   95.212379   34.275253
H   35.914719   31.432198   14.401649
H   87.928619   76.582695   52.162735
H   97.304329   77.889740    7.794278
H   38.034187   67.751938    2.768796
H    9.618701   90.597160   86.010124
H   87.416840    0.039715   82.363197
H   11.398537   62.526001   31.895937
H   79.991211   84.340576   30.340681
H   95.940598   79.487686   78.274933
H   43.412579   85.897629   71.255760
H   40.853561   75.367615   45.922188
H   32.672367   84.527191   75.724670
H   29.901020   34.156208   98.333565
H   70.914352   27.960312   61.318436
H   56.438885   33.839249   99.678596
H   74.206223   23.117104   95.482666
H    4.211596   87.586662   22.433887
H   43.259663    9.053154   92.798065
H   86.647156   17.158821   28.866085
H   86.350639   43.665527   85.946632
H   90.200127   46.267578   96.632538
H   43.407333   85.912781   32.114117
H   98.239548    8.605413   65.478592
H   33.034489   81.774727   11.217089
H   47.940178   24.163090   17.350079
H   84.848320   96.580994   24.744789
H   12.548118   14.872061   57.378304
H   95.306923    4.878329   23.186169
H   66.352165   93.177231   26.357132
H   27.629057   52.413628   77.350304
H   99.514702   62.111977   25.734661
H   80.571724   62.536823   43.393681
H   71.898232   56.594887   67.026154
H   87.902145   77.489960   47.388531
H   22.363945   31.146505   44.757198
H   43.054764   81.413055   25.979603
H    6.057913   36.002098   93.868286
H    3.428497   41.270775   17.344143
H   65.998276   27.567917   30.080570
H   63.462555   33.557697   65.985588
H   47.990917   13.020813   81.233330
H   42.250523   33.963413   84.536049
H   13.953582   46.951668   44.611088
H    6.068360    2.821225   57.104603
H    7.457423    6.497573   20.709375
H   40.619011   42.547855   59.356972
H   16.354042    5.537106   99.147728
H   83.965652   67.921951    3.221464
H   21.565620   68.619949   74.458984
H   54.112492   69.601471   85.640259
H    7.112673   31.771420   22.282631
H   70.465729   15.257397   85.686127
H   65.334106   46.247894    1.152811
H   16.606939   31.788002    1.642457
H   16.077475    6.261173   56.900146
H   33.196640   86.213692   97.643318
H   36.114262   55.609238   57.732735
H   76.874176   75.109901   12.338174
H   54.647644   76.396049    4.694850
H   24.874531   39.586006    7.837807
H    8.229160   39.788124   78.649849
H   92.013542   15.170612    1.914105
H    2.417263   48.239815   74.531258
H   66.135620   82.024696   22.386087
H   20.576384   48.038971   96.271873
H   30.786491   52.950413   32.191566
H   71.205132   82.786781   37.935463
