100
TIME:    2.188, STEP:  2188
H   69.356842   21.370468   97.142838
H   40.407082   23.374243   16.018270
H   17.364569   31.316975   97.651558
H   81.843857   42.505211   20.231049
H   75.573334   48.135365    6.379629
H   94.088631   98.837669   95.430443
H   38.297329    9.081081   61.557304
H   47.913811   77.891357    7.298468
H   99.842720   75.926071   62.361607
H   15.048243   47.799797   93.368492
H   96.732605   54.281391   28.990568
H   72.332062   33.363632   37.184334
H    4.084332   29.330498    7.659943
H   46.744408   98.331825   23.747654
H    7.113793   74.586334   45.597710
H   13.549747   20.358772   51.418716
H   48.155518   26.692940   72.565216
H   47.901199   88.298073   23.691757
H   79.342461   70.144211   78.634277
H   33.569824   59.347240   65.301857
H   34.437607   38.395313   97.858398
H   72.146042   46.988586   32.949844
H   56.531075   76.827354   69.748886
H   15.752647   62.923344   44.574661
H   51.328117   12.646126   52.705338
H   36.626423   62.410915   84.090614
H   73.405830   51.525738   43.384815
H   47.924446   58.568157   39.095379
H   58.746780   47.604256   53.744041
H   84.891396   36.687180   57.328182
H    2.171708   18.255087   36.275257
H    3.908911   92.061119   96.709969
H   24.477051    8.398106   94.909271
H   70.549339   73.205643   79.574417
H   26.384796   93.523987   57.961075
H   62.792675   56.363934   13.118287
H   89.656708   24.407267   80.871216
H   73.555840   18.907467   76.841988
H   52.718170   33.742554   32.278358
H   57.107563    7.349610   10.181055
H   85.715599   31.259352   93.892868
H   34.976227   10.055444    5.595843
H   30.087362   76.620728   59.513863
H   39.640144   49.442314   94.665207
H   66.861778   45.562542   43.344437
H   49.859341    4.649525   92.054543
H   58.823368   43.829010   46.458870
H   56.356266   17.910860    3.958977
H   28.987516   51.238506   57.195641
H   71.776329   64.052132   30.632999
H   43.377689   58.406334   76.486771
H   11.465742   60.709934   30.423817
H   54.267395   34.695496   75.794914
H   26.024471   71.509987   28.366190
H   66.574615   50.317257   18.972242
H   96.303909   10.232466   18.142120
H   34.961269   26.413429   64.084450
H   63.133881   70.257950   57.198074
H   62.838562   31.217714   43.509560
H   14.634027   95.964111    1.378590
H   97.720963   76.818916   43.801594
H   21.255917    7.578032   96.353333
H   22.643101   57.948219   83.452805
H   93.285217   53.696671   67.739326
H   19.166832   86.092224   99.325012
H   66.932961   33.500984   75.556984
H   12.021067   24.008184   72.698807
H   29.225792   42.671692   70.801651
H   65.953606   92.570610   23.004539
H   74.711243   58.194504   97.125824
H   52.553902   46.528389   35.905087
H   93.556824   78.909546   16.816404
H   64.329987   10.079983    5.644184
H   82.038872   10.918057   73.169212
H   67.662254   31.756964   67.263168
H   77.385277   47.803482   48.704395
H   65.612152   36.905556   29.745520
H   34.776546    7.652256   35.275249
H   66.433350   47.091885   42.089661
H   92.221626   89.790924   32.422951
H   53.699581   51.917522   10.760635
H    5.490639   58.516861    3.817882
H   56.237728   43.777222   38.295994
H    0.683905   99.391579   63.580231
H   45.792389   12.022774   35.650299
H    0.931243   89.423500   93.724495
H   13.286306   44.267502   27.875700
H   91.177643   30.117828   72.993782
H    1.088723   72.347923   10.299067
H   72.890518   19.254379    2.434652
H   13.564636   91.577469   79.668289
H   40.178471   60.062397   75.212395
H   25.669937   93.193222   88.184586
H   58.707142   45.951519   74.343361
H   18.762127   53.742653   66.364616
H   74.641403    9.329987   54.435944
H   88.929459   93.245491   11.355558
H   14.898726   34.867188   21.026985
H    4.482204   46.281902   61.771034
H   75.123520   22.502384   86.949860
