100
TIME:    6.410, STEP:  6410
H   83.840408   34.192436   93.277481
H   23.446564   52.213528   82.276894
H   89.948151   35.064522   48.100239
H   82.552505   68.558258   88.808838
H   37.757263   86.547195   91.904541
H   28.617855   94.263664   13.549694
H   17.022541   94.170906   91.723427
H   16.072937   43.147961   19.648525
H   96.057838   69.998001   96.599648
H   99.679482    8.422091   58.695164
H    4.012436   24.162588   22.306194
H   11.187798   44.990696   36.657768
H   35.031418   73.964989   88.091728
H   37.695534   85.318459   45.044491
H   58.461861   97.460045   42.645275
H   43.792145   51.087013    0.954621
H    8.653031    5.943355   56.915932
H   38.142033   82.928558   77.320839
H   45.103222   47.261833    1.067088
H   19.821526   69.686562   52.755211
H   83.898239   18.081257   83.264091
H   76.913284   52.593353   73.407578
H    0.159479   42.490105   48.953293
H   23.476200   13.510469   31.010744
H    0.326709   77.815201   83.879189
H   17.325926   37.164062   87.649574
H    9.337048   76.022049   27.151411
H   91.684799   55.636833   78.654343
H   50.550316   30.657021   54.167694
H   46.780537   32.192497   92.965591
H   68.331154   96.853081    2.240194
H   70.488586   75.408630    5.858230
H   21.868549   99.496758   75.260376
H   48.939888   86.284531    1.708979
H   21.429108   74.343117   15.039895
H   29.847654   87.487190   99.273262
H   94.601631   69.787231   13.548131
H   99.056679   41.647945   74.776772
H   74.505310   41.752678   23.135519
H   59.442265   12.100254   42.360065
H   97.174057   76.124550   93.362526
H   60.014099   66.739960    7.202229
H   66.451752    1.939509   64.473900
H   70.042404   20.234396    7.471992
H    0.636131   78.985397    4.630928
H   95.383995   85.177780    9.202543
H   91.812790   73.435440   86.994621
H   56.581745   61.390900   65.192398
H   52.398666    1.574601   88.776443
H   60.319454   28.296804   35.344490
H   43.061451   50.799561   20.998093
H   16.648663   68.940079   53.259621
H   41.835484   59.176086   30.585508
H   28.251305    2.615083   14.672046
H   30.421638   20.346432   54.869740
H    1.579406    5.791025   74.415268
H    2.619015    4.588532   65.631783
H   48.753571   71.542061   48.449081
H   95.820557    9.607799   19.387260
H   36.024734   20.481701   81.294945
H   64.048393   80.476456   14.622528
H   71.414497   68.278702    5.320547
H    9.234911   69.876137   93.917511
H   83.203232   76.681091   53.110462
H   86.746826   48.888615   92.504051
H    7.570786   23.612846   25.193068
H   73.282089   69.970612   76.536758
H   37.583321   84.131691   72.637665
H   76.376442   89.204620   58.209927
H   60.247711   70.547783   88.235504
H   18.485947   59.264816   85.256783
H   45.433010   38.789673   25.931629
H   89.046829    1.242996   97.393616
H   89.100670   43.730068   22.292883
H   71.221550   37.779827   87.319229
H   77.195503   18.393230   64.616394
H   48.947842   70.999657    4.423859
H   33.133785   31.585711   68.441414
H   68.894279   34.690533   89.197563
H   85.172897   59.836708   68.693962
H   36.306343   95.596054   63.099674
H   22.298586   86.040634   50.743374
H   23.321564   14.316024   40.399704
H   91.147453   60.676781   77.962273
H   40.215843   47.936707   26.374664
H    3.761883   44.504646   86.912964
H   95.264122   37.293571   29.196997
H   59.119438   92.139038   29.116089
H   88.708115   37.273186   75.765266
H   99.608047   45.552166   53.357620
H   86.346245   19.553810   68.829269
H   52.573986   77.572739   55.659645
H   96.346954   19.850643   14.699718
H   66.768013    2.060444   59.015442
H   45.767586   75.561325   63.381077
H   23.361343   42.607208   36.364243
H   53.806541   35.536285   68.544342
H   25.904543    3.626401   50.199730
H    3.355577   64.482140    8.131790
H   37.360592   14.144321   80.245110
