100
TIME:    6.165, STEP:  6165
H    0.408998   56.660240   93.501785
H   30.212139   38.936588   66.829811
H   85.734970   17.438721   50.976940
H   82.511383   78.651947    2.237401
H   39.951706   66.909363   98.547684
H   32.417942   94.529091   89.286919
H   29.863022   77.628471   72.564110
H   35.329453   21.953083   42.144367
H    2.080430   93.553680   12.021651
H    6.372099    4.903991   49.102421
H   26.801743   14.304499   45.905251
H   20.539413   32.710041   54.097420
H   50.665421   88.780281   12.436211
H   49.826653   86.073616   26.399204
H   55.486092   19.344635   54.426853
H   53.642838   72.515541   21.292202
H   28.354591   89.737907   34.612617
H   32.902660   94.850327   85.814491
H   41.288181   36.983093   88.158524
H   26.421677   74.890419   36.074455
H   98.436890   42.472469   89.914711
H   53.424896   52.268112   94.271606
H    3.430906   44.482674   55.962799
H   46.240856   10.579561   49.207371
H    9.089021   97.243683   82.069801
H   18.442774   44.407219   10.688839
H   30.463699   86.205460   22.289618
H   12.357329   44.201057   70.556961
H   45.223091    8.429251   65.749268
H   37.385929   38.256187   73.488510
H   58.688782   74.882484   21.623756
H   55.019077   82.178879   28.539101
H    4.610836   17.421591   53.188843
H   38.588249    8.737266   12.029894
H   27.526470   92.892403    0.133057
H    8.550741   68.297966    0.043394
H   71.102028   78.759399   94.243324
H    9.182775   46.132160   57.487362
H   84.845734   47.091118   46.877769
H   82.519058   35.036495   23.083422
H   13.917698   67.716881   87.590431
H   80.661301   65.779190   94.694176
H   64.343292    0.469791   46.778114
H   85.687622   16.122152   83.516685
H   21.888016   88.652908   83.665756
H   98.546684   80.504776    8.207193
H   89.898727   60.111771   84.643166
H   56.568661   58.867477   50.033176
H   45.237755   21.864845   98.548630
H   55.177280   24.566813   52.475723
H   43.078274   74.452438   18.415791
H    4.740438   91.673447   69.342232
H   36.753124   57.755493   44.815647
H   33.924332    6.612838    3.861517
H   49.928703   98.875549   52.785580
H    1.274259    6.048741   82.755646
H   87.086189   11.658320   42.330315
H   66.996979   94.679039   54.759506
H   76.496750   99.254860   38.195168
H   52.191460    1.649561   88.263329
H   48.593830   91.871109   33.723934
H   80.110023   70.559128   16.406387
H   92.602150   86.594276   10.717896
H   66.380417   75.346481   59.762951
H   77.023239   68.456863   69.688576
H   22.620663   35.792564   10.706584
H   92.938614   61.499943   64.708450
H   54.507072   70.120155   60.925251
H   64.166817    6.808739   73.575470
H   55.284981   58.225128   88.751404
H   26.266499   75.934357   88.195168
H   65.633621   46.920700    7.993834
H    5.021276   13.361031    3.675162
H   94.495186   59.235096   36.849602
H   59.408924   37.430286   68.746841
H   71.404716    2.690923   81.102753
H   26.696659   92.204689    0.079015
H   21.623241   47.606613   54.910873
H   57.145565   35.410175   86.464790
H   97.188126   73.182808   89.800987
H   31.511843   93.061417   48.456348
H    3.913307   84.451675   71.238731
H    7.824016   10.219201   17.066460
H   74.290993   39.711815    0.340326
H   52.145088   63.262291   50.124741
H    9.401089   35.504440   69.899490
H   78.901131   55.107063   17.514486
H   55.179161   11.743784   31.656334
H   83.623886   50.914619   77.769051
H   21.269602   55.632771   44.600410
H   76.319847    6.324565   63.655315
H   34.446468   59.146149   50.992249
H   80.641922   12.499074   95.753494
H   43.090618   87.196602   42.495438
H   50.003197   97.505753   57.751041
H    3.125309   52.282196   49.018738
H   73.253716   21.476851   82.634384
H   26.377451   91.503082   55.117599
H   15.026498   63.425190   28.653755
H   22.143419   20.431381    3.845900
