100
TIME:    1.419, STEP:  1419
H   21.361113   91.891861   97.846878
H   61.798180   81.681526   67.510338
H    4.146132   75.992760    6.678374
H   81.714783   74.187035   62.384655
H   82.461197   86.496635   27.229347
H    6.012142   99.670784   19.273771
H   78.599907   57.156445    1.420431
H    8.355698   11.364067   77.906532
H   18.746269   49.862366   10.765571
H   36.061485   36.758095   63.258881
H   68.263107   23.338810    3.064578
H    1.679139   94.818016   91.923485
H   52.998924   75.855843   84.091728
H   84.821266    0.702265   65.227791
H   97.759972   43.275150   82.562759
H   44.469772   87.620110   15.251468
H    9.981928   75.837723    2.552390
H   31.467720   25.694870   50.352341
H   67.362038   37.882668   38.120495
H   54.286217   75.679306   12.944712
H   80.071167   14.951042   18.730549
H   98.410698   45.972855   98.429176
H   66.798332   83.081581   91.750153
H   87.201027   53.700413    1.686222
H   78.832634   73.634560   47.031944
H   40.152493   85.327026   56.169098
H   39.716827   83.491470   28.124739
H   12.810989   22.673824   13.676616
H   42.025818   77.834869   90.096001
H   55.403835   55.719742   96.195457
H   71.921181   49.293564   97.125153
H   55.353672   13.308377   67.900139
H   70.311111   64.661446   25.631681
H   38.057869   43.679787   11.971334
H   45.500359   51.654671   11.136513
H   95.930908   95.953262   15.761622
H   15.899919   52.569679   20.276800
H    5.342518   32.982410   22.576679
H   86.927505   50.216530    6.121913
H   29.539824   79.341545   49.678616
H   38.267952    4.872587   75.775558
H    4.089561   75.544273   69.467133
H   23.463514   72.009262    3.969716
H   88.746971   36.552505   19.476664
H   33.568054   75.903122   77.537674
H   59.780445   89.982033   88.933296
H   51.063404    2.286657   39.748482
H   56.315197    9.993338   56.377605
H    6.510973   14.928215   87.869644
H   55.650761   52.347485   84.418053
H   43.436359   32.648659   68.378571
H   74.093819   32.066113   80.907425
H   38.315010   30.236572   20.455921
H   43.830830   84.053642   94.433853
H   27.793251   82.902313   12.447334
H   95.341721   11.040646   44.320694
H   86.210190   48.602440   90.946068
H   20.395828   42.880898   77.005081
H    2.191326   98.724106    2.545528
H   65.377945   36.857212   23.249840
H   49.212566   12.582623    3.760115
H   48.548065   14.737244   31.149414
H   70.483734   10.387974   36.209328
H   40.479561   49.513496   88.614128
H   88.644691   47.511326   27.709562
H   14.173740   71.730385   30.087706
H   73.719437   97.422241   35.572399
H   82.345650   98.690598   34.039005
H   27.624763   47.826035   71.236305
H   59.130310   19.514292   98.745117
H   76.972374   98.851524   45.128757
H   56.963253    4.431273   60.515312
H   14.470165   48.115772   25.363186
H   98.959312   59.583740   18.873207
H   30.587963   30.662767    8.967449
H   59.207752   98.516747    0.449604
H   95.790703    3.557257   16.142694
H   98.647522   57.936935   92.805450
H   29.569071   49.345554   33.511330
H   29.935196   31.671846   98.673164
H   38.650715   43.961864   64.798897
H   47.792454   53.494705   68.121536
H    7.582357   30.940458   65.052612
H   47.785137   33.587261   33.820015
H   83.235611   60.126221   10.196274
H   18.631702   61.179157   40.323021
H   61.926521    0.180052   91.206406
H   78.798264   91.686172   80.992638
H   85.130318   15.164767   16.590099
H   40.879837   50.895134   74.942223
H   82.093849   50.052784   63.428417
H   83.278587    2.228814   60.557999
H   76.329933   70.147629   28.692999
H   84.379555   99.304970   22.494938
H   32.059681   22.624008   48.693199
H   11.125214   39.695732   94.155563
H   49.968613   49.113888   55.581192
H   12.075231   28.319611   33.332710
H   41.114037   42.967045   26.188236
H   27.366104   42.255177   61.015938
