200
TIME:    0.247, STEP:   247
H    9.686253   62.451763   15.459272
H   28.026676   32.980358   90.181351
H   17.990973   69.444542   45.692986
H   18.078466   77.055580   44.316647
H   15.135822   83.906662   53.557858
H   89.390869   52.625004   65.342216
H    3.460648   55.299164   49.786854
H    3.045493   89.188660   24.823860
H   87.712753   87.401283   47.548653
H   10.614788   74.800835   95.796349
H   12.437667   94.743721   93.182877
H   30.806747   42.209682   13.075815
H   11.345981   87.240196   61.004784
H    4.072807   53.236469   42.603115
H   19.283905   71.998474   42.961369
H   29.096352   25.677948   54.172001
H   84.536713    8.046343   15.092188
H   36.395954   83.503548   43.395744
H   65.258324   29.448492   42.586880
H   90.078522   79.608543   37.199368
H   58.169083   77.107689   25.519772
H   89.873192   49.081932   70.304939
H   94.795593   62.490562   48.968246
H    8.756499   88.123001   91.564133
H    3.550717   12.985503   45.160572
H   18.655298   62.646912    6.725355
H   99.031303   58.937214   49.363312
H   94.670929   70.418198    0.749690
H   11.363420   56.316963   38.297375
H   92.733101   20.951866   98.383759
H   13.352353   51.741703   16.203371
H   31.798759   63.670395   93.775467
H   26.954163    9.136163   73.264656
H   96.194878   63.585556   38.412651
H   47.652515   89.511765   34.165844
H   32.832600   49.762348   79.556747
H   86.465378   74.277916   86.007484
H   32.568649   44.936386   14.852709
H   52.811180   46.149956   44.587231
H   90.015617   39.659702   63.422943
H   80.506393    4.896809    1.756626
H   13.687731   42.960102   39.623577
H   76.575821   87.621124   50.588207
H   37.265671   63.573910   18.998688
H   29.016171   76.508720   44.616524
H   40.961285   13.656323   42.764008
H   80.106064   25.869236   96.332497
H   89.945404   65.550499   47.396011
H   87.351082   28.486523   61.171379
H   61.866898   17.833094    5.416275
H   78.041718   70.407516   27.591316
H   20.870527   35.818462   63.692165
H   52.365528   94.221909    8.019805
H   22.302412   82.331421   81.806824
H   76.902603   76.229256   90.546967
H    5.215919   72.177612   78.877441
H    5.410507   16.771950   49.579502
H   67.485153   58.742123    5.177099
H   28.033455   74.612686    7.295788
H   42.941391   95.949867   66.864830
H   50.396847   15.239834   42.031986
H   90.062462   16.441465   49.119827
H   71.640160   25.351479   84.648758
H   24.295641   65.162323    3.823793
H   71.460899   76.183426   18.215843
H   38.465115   16.833080   32.989120
H   85.913673   23.014334   85.979744
H   97.302223   91.465843   87.410141
H   16.771477    5.947843   61.891205
H   45.196671   41.751991   50.982220
H   58.462093   76.713203   73.468582
H   31.943766   23.637836   44.715828
H   77.715958   25.784115   99.261360
H    8.093412    8.810830   60.776398
H   79.230270    0.984894   67.283577
H   53.490692   18.829468   62.831730
H   95.397995   30.210791   72.046562
H   26.295969    6.097404   47.728172
H   11.583778   30.005302   34.783421
H   68.170616   90.627907   93.929657
H   43.665195   29.983742    1.029718
H   26.944250   68.464371   87.640831
H   10.972403   13.743085   90.074905
H   24.445797   62.088493   94.079681
H   38.658947   99.397873   57.583820
H   24.864428   85.529404   27.637104
H   36.168949    2.798696    1.787371
H   75.273277   18.283817   11.706214
H   65.902031   72.068077   77.191803
H   23.409069   86.360916   54.788494
H   40.949383   34.953224   80.723351
H   84.006668   88.596878   98.520584
H   47.592224   16.783152   95.530464
H   59.713974   94.182159   69.296875
H   25.302275   56.831512   68.231323
H   68.982185   27.865803   28.732555
H   79.400551   14.037058   98.630699
H    6.702259   28.547483   48.659847
H   36.859291   69.707909   52.906055
H   67.326141   98.041138   27.252115
H   10.178558   80.619934   69.269417
H   90.832603   76.762474   65.825989
H   23.324499   36.914139   30.600668
H   22.212265   67.952408   90.440346
H   25.329460   27.380741   25.314484
H   87.700226   26.430164   43.563046
H   65.989899   30.183699   56.226654
H   64.709969   34.543140   18.470932
H   72.974457   40.001293   99.471077
H    4.591598   27.962790    5.571524
H   47.286640   96.005951    0.800776
H   86.275032   63.521351   90.590897
H   56.972462   80.355888   93.783112
H   63.200462   19.246435   74.773468
H   63.616661   82.260056   26.527220
H   13.752819    5.592527   79.250175
H   32.287136    8.541277   84.261703
H   40.735600   27.341026   33.838585
H   19.128181   57.976421   83.193695
H   70.967361   46.814571   49.603886
H   40.627632   21.805950   87.290451
H   17.987061   27.314205   48.394070
H   32.405159   21.527340   24.236805
H    3.974178   67.066910   17.558668
H   76.706917    8.778781   92.581619
H   47.978802   62.543968   25.396229
H   95.212639   49.222610   70.784424
H   75.275558   87.624870   35.061695
H   92.553864   52.230286   84.730743
H   68.084480   24.116167   66.620865
H   48.891525   84.935760    3.678854
H   81.431320   86.120804    9.492063
H   92.414894   82.935303   97.427223
H    0.577334   13.182433   49.793262
H    4.771889    1.243551   56.095222
H   62.171638    1.617867   83.578476
H   68.904305   86.582359   55.687134
H   91.278053   64.002388   83.087769
H   46.496201   44.431526   71.548431
H   43.451736    8.754202   95.262985
H   50.964207   62.862812   15.136057
H   56.916046   41.223515   46.410072
H   54.780476   56.889832   99.148140
H   57.392326   26.274298   78.240425
H   40.630970   69.534920   49.297443
H   46.196613   62.096348   29.510914
H   44.896812   96.747139   47.231773
H   42.461304   73.158127   68.784813
H   65.372406   64.500046   97.874870
H    9.685117   88.751221   89.734978
H   75.973488   61.428829   51.291351
H   34.082035    6.916016   47.932964
H   76.500938   31.576847    3.218852
H   10.094935    1.303416   75.779541
H   13.890114   54.063904   60.879864
H   63.709900   43.546261   54.276318
H   59.384533   61.093498   80.838669
H   46.145588   36.547585    9.888128
H   12.061429    1.707956    2.345338
H   63.601196   56.658203   78.509705
H   54.024708   84.125000   83.229767
H   43.275448   23.020025   35.483334
H   65.520668   34.264759   37.229141
H   11.531621   20.385300   70.899292
H   58.887161   22.325884    9.893325
H   12.034299   64.216545   62.263557
H   74.779297   97.453743   52.295906
H   23.638329   31.251049   48.302174
H   94.168076   28.147446   36.840405
H   26.792400   10.406889   90.324524
H   79.231262    5.717065   35.975487
H   45.921120   65.187134   57.479610
H   37.808193   77.153458   90.227066
H   71.138237   74.376480   74.406113
H   71.112518   94.983887   98.902283
H    1.123497   47.698662   23.293461
H   35.345833   53.139820   87.200790
H    1.792041    9.207535   64.969711
H   75.422554   21.216837   69.052971
H   85.967545   54.530190   86.483749
H   81.290016   85.440262   41.556545
H   19.368858   30.114590   69.871712
H   65.312897   90.158493    6.208574
H   51.633339   25.233303   77.447807
H   85.613487   88.030769   78.367996
H   99.406975   36.282837   83.989235
H   31.595757    4.404661   99.420242
H   90.084755   67.521065   25.771479
H    6.415663   61.204620   66.623413
H   49.740864   58.235233   65.791458
H   48.154671   30.792751   79.251472
H   47.595531   85.119431   24.535227
H    4.255959   17.690557   57.966564
H   34.981266   63.810474   33.454353
H   84.654388   53.942673   21.793386
H   75.345230   10.400622   29.470469
H    9.507810   85.750282    3.703044
H   28.706055   97.267059   46.769299
H   11.819963   11.631481   77.704002
H    7.934727   34.755592   97.651543
