200
TIME:    0.500, STEP:   500
H   17.460478   61.612110   19.785416
H   30.281675   36.673866    0.452156
H   12.688281   80.518311   58.154594
H   26.606735   80.012703   37.700760
H   12.449656   90.318909   49.920326
H   81.160339   45.758186   57.853691
H    7.126159   55.119652   54.683865
H    8.715081    0.113793   15.843438
H   97.987404   83.608368   41.376720
H    1.708745   71.256920   85.817024
H   21.256052    0.148377    1.177914
H   31.852936   48.962616   25.130686
H   17.555553   95.636726   50.635551
H   92.114662   54.303890   54.794491
H    7.069051   73.946083   42.338867
H   21.721882   15.253704   48.714256
H   96.438553   19.895584    2.808643
H   30.388222   95.665970   38.891537
H   73.676086   20.289036   46.311272
H   90.883430   76.134117   27.391834
H   61.205345   89.737228   13.928743
H   84.240761   58.752419   60.555313
H   87.219414   60.651047   42.897652
H   14.115319   90.429634   90.770805
H   14.547469   23.160818   36.132854
H   18.445868   73.874985   98.369362
H    3.930762   64.013741   59.535660
H    0.477122   80.854988    1.415405
H   22.019291   48.626900   36.815918
H   81.300308   27.729410   89.632065
H   13.022041   62.311680   16.512691
H   27.198040   69.600082    0.004341
H   20.841103   14.580154   76.354965
H   87.821510   63.861580   42.834824
H   35.511326   79.057602   32.241398
H   24.568291   43.993835   82.457893
H   93.726929   68.817276   87.906837
H   20.054420   51.480854    3.477338
H   43.447601   37.090389   50.210976
H   87.589310   38.619305   53.540131
H   80.581673   93.078140   10.154273
H   26.280596   37.654846   32.121712
H   72.020462   81.809181   59.982670
H   36.702042   75.861763   28.047155
H   37.660568   84.227737   53.746544
H   37.400963    7.072044   45.515560
H   84.873749   13.474171    1.879704
H   83.786018   65.546638   38.300735
H   97.135452   18.885525   61.353786
H   52.813122   18.974829   94.712799
H   72.023239   67.205254   17.564701
H   11.199196   40.173077   69.131630
H   59.188629   86.983940   11.327951
H   18.537003   87.670456   85.553413
H   66.193649   70.602615   82.364693
H    1.972639   65.944878   87.162018
H    4.688478   17.729347   46.865589
H   70.249252   64.623550    0.610754
H   22.694902   79.500046   13.414880
H   37.089878   94.529213   62.187866
H   49.577461   10.303736   34.640144
H   94.609001   17.040804   51.059090
H   78.610245   30.592554   76.113251
H   30.425591   65.523277    9.472542
H   75.527908   79.955109   28.561430
H   28.540632   26.662329   37.536758
H   76.463234   17.677711   91.206825
H   95.885429   92.041054   92.419106
H   25.770723    9.366775   58.688942
H   43.740307   46.161617   50.968708
H   58.351105   81.089050   80.235992
H   24.833256   16.987688   42.944836
H   85.745743   30.158031   90.789551
H   16.335775    3.249714   68.141762
H   82.310928    5.080374   55.387527
H   59.885567    9.897462   61.178482
H   94.328644   39.629379   68.467903
H   16.925152   10.704397   39.076851
H   13.507259   41.277004   29.179943
H   64.358398   89.216904   81.931305
H   54.403103   25.707785   97.273712
H   38.068951   63.914783   79.819511
H    9.985328   16.518282   82.672447
H   16.195482   70.361488    2.325561
H   29.649567    2.073233   50.413956
H   31.992310   76.677338   22.370453
H   47.508125    3.325891    2.367396
H   73.169319    8.867456   21.248821
H   73.643753   72.690079   78.107178
H   22.141869   97.701057   52.005093
H   30.343773   37.137287   79.598022
H   82.244362   90.816650    4.040984
H   59.610844   13.929779   88.324890
H   48.369007   85.092674   76.243797
H   31.713074   53.409203   78.768486
H   58.504860   33.522362   16.836988
H   82.832512    5.286292    9.526747
H   99.747154   32.478836   51.055271
H   31.126488   67.173508   53.802650
H   71.725151    2.152216   27.313883
H   21.466459   87.615112   81.182838
H    0.240561   80.590134   64.430428
H   28.568953   27.668077   34.136089
H   34.369286   68.419525    0.487253
H   24.994081   24.055908   33.517025
H   97.716225   14.043352   31.718134
H   77.974739   33.325161   55.049210
H   63.219318   44.257057    8.687828
H   79.404076   36.807716   11.704914
H   12.718860   24.435282    6.809771
H   50.615334   93.807411    0.978780
H   96.433868   69.883484   93.472740
H   52.578278   83.291779   88.280006
H   62.343437   13.792068   68.249268
H   55.173805   92.795288   17.656334
H    3.427745   98.191292   90.663666
H   21.885090   12.103770   87.211105
H   39.451992   39.793949   28.781364
H   28.736418   67.475113   70.689621
H   77.644051   51.864071   59.041779
H   43.268196   23.487186   79.000084
H    7.070617   21.320820   55.836098
H   38.504707   10.856874   31.742048
H    0.246601   57.962624    6.479400
H   69.136528    2.514588   84.214043
H   57.247799   69.466003   20.511282
H   88.923927   50.403915   61.013565
H   69.741570   89.609154   37.198467
H   95.667336   43.072277   78.965126
H   80.347275   22.917007   70.931084
H   59.104408   75.902252   13.347408
H   71.720299   88.630112   15.458425
H   91.588753   95.244423   99.309204
H   88.171692   19.669170   52.907299
H   17.270359   96.668915   44.469406
H   55.433182    1.293164   79.851189
H   69.323166   87.227058   68.281929
H   93.436058   56.102894   79.090248
H   53.109192   47.969650   71.488594
H   43.588783   96.620201   88.233063
H   63.489513   55.422714   23.308655
H   45.268997   48.910683   52.307911
H   46.647423   61.546528   90.614563
H   45.799324   17.116156   82.432899
H   52.523159   61.144180   57.570438
H   55.466576   66.455246   17.393852
H   50.880547   95.639183   45.420246
H   35.552986   63.740501   67.333275
H   72.135956   53.936867   95.359772
H   17.749939   91.513390   80.267166
H   67.055794   65.725540   49.381382
H   44.732117   99.915611   40.004517
H   88.254150   22.116756   94.337509
H   16.782936    7.110658   69.527504
H   23.922520   60.745419   65.457115
H   71.220451   44.173588   62.059998
H   62.032818   68.680893   83.834396
H   49.742584   32.488297   15.815403
H    0.482105    0.754664   92.962624
H   60.764713   46.335297   88.218796
H   56.509888   73.846489   76.502892
H   31.396746   21.708912   33.291550
H   76.411064   23.234035   37.123943
H   20.818357   27.817677   60.074875
H   56.464714   30.910612   12.379229
H   16.393257   56.166515   60.880543
H   70.422752   93.361641   54.977970
H   23.859341   42.762016   58.764057
H   97.605827   27.324682   36.242996
H   38.338112    8.497643   87.475494
H   74.397949    8.725821   35.954254
H   37.181007   55.789894   58.256531
H   42.696518   66.282364   83.108353
H   68.024338   68.318932   80.271530
H   59.353516   93.080673   87.006233
H    8.934705   49.065269   23.536188
H   32.746769   61.043175   97.784279
H    4.034314    9.448814   68.204788
H   68.952400   15.335378   66.093918
H   73.932518   57.244102   90.052757
H   76.670959   94.506584   35.674149
H   24.471922   30.423428   79.107895
H   53.664333   89.894226   11.217636
H   57.142944   25.701519   86.755409
H   88.885239   77.057373   77.325668
H    4.703435   38.417679   85.255470
H   40.405334    0.070970    5.026121
H   77.930054   78.237740   34.624168
H   99.088905   62.332844   69.514908
H   54.341583   56.858974   68.987930
H   60.240849   22.422279   77.444771
H   45.521492   91.994934   21.312696
H    9.875682   23.709518   63.762100
H   30.561182   73.907562   38.553074
H   75.972183   42.642101   20.965797
H   75.962906   11.021435   26.004246
H   11.189528   92.648949   12.242414
H   21.353300   92.238792   39.634178
H    8.446151   12.339396   66.388954
H    5.295973   26.184048   94.136581
