100
TIME:    4.224, STEP:  4224
H   31.669849   34.658936   95.278824
H   83.819221   33.756210   44.442825
H   52.361427   77.795677   73.761116
H   82.185593   58.621635    8.630563
H   57.337067   11.329730   51.174210
H   62.523937   96.631920   97.062584
H   31.590923   46.563015   20.775309
H   87.888222   54.030819   20.359890
H   49.793953   80.172958   34.200954
H   59.409538   77.033745   73.098450
H    7.348831   36.204182   32.872715
H   94.620995   35.417778   92.260536
H   74.524979    6.156090    5.304249
H   45.932945   92.056313   78.688675
H   31.881805   92.722961   47.729206
H   31.687317   42.282646   82.412048
H   84.438118   61.354115   57.915733
H   91.400597   89.287407   53.102764
H   11.058586   55.557030   85.899109
H   78.715202   16.114801    3.922186
H   13.618561   35.704983   42.596413
H   67.339340   49.691406   59.565659
H   29.347542   60.268700   11.496024
H   26.586159   87.341919   93.361588
H   78.509918   51.175934   67.735023
H   27.290945    1.781428   93.212898
H   97.838280   66.892410   83.779701
H   76.132477   53.601746    6.393126
H    3.017307   32.325954   57.501259
H   62.960068   86.295464   19.184399
H   82.296730    0.830341   75.189507
H   32.463024   35.806763    8.227180
H   67.891335   59.434258   78.328232
H   56.575745   86.618408   93.801476
H   75.773758   39.618187   81.940292
H   39.822437   16.271046    6.148673
H   84.935410   49.844223   41.299915
H   89.406715   81.650764   20.517895
H   66.778198   89.384636   34.974907
H   65.338890   16.746296   70.370789
H   46.570938    1.121376   41.861309
H   51.992081    1.432305    1.248974
H   47.624622   88.830017    6.578295
H    9.628321   83.560394   93.735229
H   90.254936   65.231628   17.569811
H   23.592281   43.483143    0.318829
H   74.734665   54.553551   66.013878
H   56.465000   38.875793   29.935081
H   88.502548   82.617889   75.978180
H   14.467494   95.025826   88.232521
H   43.222355   61.843605   97.953995
H   10.411371   71.784363   96.763245
H   96.490883   46.500916   57.547131
H   78.873497   38.287453   18.209774
H    4.473211   28.769426   36.273930
H   98.851395    8.090567   48.831879
H   64.033493   67.664940   57.725014
H   11.527940   77.982841    4.753954
H   23.414808   17.243023   87.204506
H   80.278015   52.459606   43.469978
H   26.154066   82.136131   85.059547
H   48.996605   88.625687    4.230329
H   60.828968   19.044861   43.818108
H   33.093651   64.773102   12.456837
H   99.979210   23.479759   88.931511
H   41.858040   32.285164   95.939651
H   48.669327   94.397827   70.996872
H   88.585075   59.112442   68.134224
H   67.427383   46.276627   95.309937
H   15.964983   60.599091   92.838593
H   87.900810    7.998611   11.477501
H   25.679325   11.338782   65.884514
H   31.579336    9.371090   53.447044
H   37.223904   82.076866   52.178062
H   65.825569   34.661068   21.606009
H   25.515085   78.292198   11.708363
H   50.467232   60.439182   65.752541
H   30.431530   74.524391   47.716446
H   64.066933   41.111507   64.814537
H   92.372162   78.906425   57.019829
H   93.531357   72.980881   32.446911
H   58.257782   71.813492   33.569702
H   85.049263   77.764404   32.215160
H   40.754440   73.615791   77.619400
H   46.655930   84.671089   38.282913
H   54.078800   64.211525   35.110703
H   49.266136   96.233704   24.960264
H   23.947542   67.110603   51.815102
H   43.344345   58.986504   93.643929
H   92.879990   35.489174   75.213806
H   96.886047    1.516199   22.664957
H   90.829651   13.167583   14.013155
H   56.220070   54.259140   45.652935
H   55.494183   69.450821   11.621660
H   83.559608   71.370110   13.150264
H   42.806686   28.929626   49.273918
H   27.320873   10.087245   94.262558
H   22.370886   52.202515   88.444710
H    7.491549   55.058300   91.232201
H    1.580926   70.236458   90.828659
