100
TIME:    4.550, STEP:  4550
H    9.624706    4.763201   94.980362
H   74.815620   51.422668   64.999268
H   57.965050    1.249750   69.935829
H   82.240311   45.190849   90.761848
H   54.417114   37.460068   42.334763
H   57.467495   96.278740   29.347647
H   14.505278   68.576553   46.268932
H   62.265266   82.234589   90.427773
H   41.780251   48.829483   13.680252
H   50.500450   81.714622   85.862671
H   77.025116   49.321583    1.470837
H   82.180107   51.758568   69.055122
H   53.722183   86.442299   72.911133
H   29.791302   91.051491    3.496161
H   35.846413   63.603027   32.057468
H   18.578621   13.769535   55.351501
H   58.223213   82.917679   87.592796
H   98.367317   73.429131   41.799755
H   16.136169   69.233093    3.075178
H   69.930473    9.191729   26.117746
H   94.273277    3.249779   33.749504
H   98.593277   50.124176   31.803726
H   24.994972   57.617363    2.168468
H   96.297165   91.251770   69.151352
H   66.850006   25.321671   70.142616
H   25.804853   92.145660   62.556004
H   69.728142   53.340282   90.246376
H   48.625629   68.818329   17.169535
H   10.106378   61.903530   42.090675
H   75.460648   78.227043   45.100227
H   95.125618   30.063122   49.397423
H   53.046947   26.800674   78.047768
H   90.853004   35.582176    7.696888
H   70.349762   56.742371   80.067253
H   67.670517   14.975155    1.792769
H   68.161392   41.804462    5.123021
H   16.203550   37.905746   66.987534
H   75.931160   75.686501   43.521847
H   53.017117   82.281242    3.383798
H   34.634514   86.227562   96.018616
H   24.291187   12.306394   49.541729
H   22.693069   16.063944   16.564291
H   50.432652   90.784943   30.125467
H   88.811081   89.022247   25.609968
H   61.975849   52.370171   45.466694
H   19.386456   49.701099    1.644089
H   77.281540   72.282188   69.142754
H   56.482410   42.233490   50.106133
H   98.033432   55.617809   62.974991
H   21.304760   99.985268   65.430031
H   43.197483   30.370731    1.391033
H   26.253481   41.533398   75.363525
H    3.252013   48.391174   38.612209
H   71.322411   32.967369   32.594444
H   78.517029   57.339695   39.047138
H   99.259293    7.747564   37.734070
H   84.701981   58.258415   88.730232
H   87.253311   47.196495   96.356796
H   49.124817   31.018284   62.178291
H   58.764492   77.516632   34.197762
H   46.718445   66.974266   59.640968
H   37.426231   85.591324   89.480743
H   82.960274   96.798874   21.463310
H   55.480782   66.548950    3.604954
H   12.918954   97.442719   19.290850
H   21.831245   16.078682   15.214826
H   22.513662    5.668951   86.735764
H   66.066124   77.756363   83.718910
H   83.673660   22.852341   74.865295
H   22.569696   76.995117   92.152130
H   77.549156   85.817688    7.566441
H   98.799347    0.519122   89.751518
H   10.322630   93.245644   45.087624
H   30.045895   61.447865   32.807884
H   81.544563   35.126171   46.319180
H   33.222862   99.184532   89.772324
H   80.065842   32.182301   71.517830
H   45.747601   53.207973   65.720924
H   79.701363   40.153942   68.450798
H   76.384552   61.152515   28.934563
H   99.908493   76.353500   51.931499
H   82.717323   73.942520    6.309008
H    5.671187   83.211365   63.263920
H   63.181366    1.512068   47.844200
H   30.782633   64.281166    6.680955
H   46.574970   76.184822   57.749039
H   71.038933   72.530853   40.505157
H   29.194254   41.010109   48.425072
H   50.109482   40.835045   90.977669
H   64.058517   22.075798   86.868744
H   10.227469   19.119141   29.549479
H   14.951587   37.683670   20.224894
H   77.117378   64.041237   70.863022
H   87.002487   89.223923   33.602047
H   77.923653   42.168724   20.640652
H   69.732925   16.057213   32.435692
H    1.445119   28.795635   75.514175
H   23.567221   54.978210   83.226601
H   91.961731   56.463558   63.927902
H   21.829424   61.870213   59.425129
