200
TIME:    0.067, STEP:    67
H    4.155211   63.049145   12.381384
H   26.422329   30.352350   82.874069
H   21.763746   61.565971   36.827019
H   12.011036   74.951698   49.023602
H   17.047022   79.344589   56.145824
H   95.246582   57.510487   70.670586
H    0.852811   55.426880   46.302814
H   99.011871   81.415833   31.213097
H   80.402725   90.099800   51.939751
H   16.951153   77.322197    2.896080
H    6.163616   90.898506   87.494705
H   30.062424   37.405224    4.499133
H    6.928103   81.266380   68.382103
H   12.581032   52.477039   33.929409
H   27.974434   70.612823   43.404255
H   34.343010   33.094406   58.054981
H   76.069000   99.616096   23.831469
H   40.670322   74.850441   46.600319
H   59.269405   35.964893   39.937115
H   89.505859   82.080467   44.177059
H   56.008896   68.122246   33.766384
H   93.880455   42.201744   77.241432
H    0.185775   63.799309   53.287247
H    4.971056   86.526283   92.136719
H   95.727036    5.746028   51.583454
H   18.804300   54.659164   12.670332
H   95.545891   55.325459   42.126068
H   90.540070   62.992718    0.276066
H    3.782214   61.788155   39.351376
H    0.867155   16.129898    4.610075
H   13.587358   44.221561   15.983301
H   35.071999   59.451645   89.343857
H   31.303375    5.262967   71.066017
H    2.152462   63.389175   35.266441
H   56.290516   96.949509   35.535015
H   38.712345   53.866428   77.492691
H   81.299057   78.162956   84.656166
H   41.472382   40.280243   22.945856
H   59.473015   52.595497   40.586147
H   91.741844   40.399906   70.454193
H   80.453720   13.307327   95.781868
H    4.728411   46.734592   44.960873
H   79.816788   91.756104   43.904400
H   37.666672   54.832226   12.561044
H   22.866230   71.016930   38.120857
H   43.494320   18.340876   40.806381
H   76.714035   34.687824   92.385658
H   94.327576   65.553246   53.866959
H   80.389870   35.317272   61.041603
H   68.307861   17.020792   13.031659
H   82.323639   72.685806   34.724876
H   27.751402   32.720318   59.821545
H   47.511631   99.373123    5.664869
H   24.981359   78.532898   79.141266
H   84.521622   80.232399   96.368347
H    7.523392   76.611969   72.983276
H    5.924203   16.090797   51.510349
H   65.518600   54.557705    8.425887
H   31.831635   71.135513    2.942284
H   47.104523   96.960609   70.192314
H   50.979809   18.751682   47.291004
H   86.828362   16.015059   47.740356
H   66.681206   21.622650   90.721451
H   19.934412   64.905518   99.804970
H   68.567375   73.500015   10.855227
H   45.525890    9.840091   29.753647
H   92.637306   26.811140   82.260872
H   98.310219   91.056602   83.846451
H   10.369002    3.515401   64.169495
H   46.232819   38.614708   50.991833
H   58.541058   73.599953   68.653824
H   37.002289   28.369167   45.975822
H   72.003067   22.672237    5.288433
H    2.229275   12.767282   55.536606
H   77.038498   98.070885   75.747169
H   48.940979   25.184372   64.007950
H   96.158798   23.509817   74.592644
H   32.962906    2.819687   53.883263
H   10.215294   21.985626   38.770084
H   70.882866   91.631783    2.466093
H   36.025578   33.025810    3.701541
H   19.029631   71.701218   93.205406
H   11.674669   11.768636   95.341476
H   30.315586   56.202568   88.212982
H   45.068783   97.494492   62.684910
H   19.793207   91.827316   31.384129
H   28.101553    2.423615    1.374719
H   76.770164   24.983074    4.917046
H   60.396061   71.620384   76.536743
H   24.310635   78.292831   56.768780
H   48.494598   33.399345   81.523979
H   85.260483   87.017593   94.592972
H   39.041428   18.813219    0.656930
H   67.785812    0.648988   64.354401
H   20.741232   59.266357   60.734528
H   76.436409   23.841373   37.195595
H   76.958839   20.262873   90.878471
H   11.650570   25.750433   46.955593
H   40.937965   71.511040   52.268162
H   64.196411   95.116028   27.208170
H    2.147671   75.643127   60.793201
H   84.139183   74.039238   66.818878
H   19.593267   43.492203   28.085142
H   13.562935   67.620071   83.292366
H   25.568069   29.746235   19.478683
H   80.574219   35.243042   51.990246
H   57.463139   27.948668   57.064362
H   65.770149   27.632053   25.431114
H   68.400024   42.273403   90.767159
H   98.809525   30.472479    4.690558
H   44.918400   97.570129    0.674133
H   79.047401   58.994297   88.540573
H   60.098759   78.267113   97.698364
H   63.810204   23.127012   79.415192
H   69.623436   74.764633   32.838566
H   21.098606   10.858412   71.129906
H   39.687801    6.006629   82.163315
H   41.648838   18.481239   37.436607
H   12.292283   51.218456   92.089874
H   66.217148   43.222042   42.889179
H   38.748970   20.609814   93.188736
H   25.753708   31.578274   43.099346
H   28.065557   29.118893   18.897106
H    6.626175   73.544724   25.441015
H   82.091927   13.233298   98.534935
H   41.384258   57.618660   28.871685
H   99.686821   48.382156   77.736023
H   79.212784   86.213127   33.541462
H   90.338745   58.745865   88.832764
H   59.359962   24.969324   63.554306
H   41.625443   91.362762   96.800056
H   88.340347   84.335526    5.247276
H   93.002663   74.177826   96.088264
H    9.403650    8.567317   47.577457
H   95.879784    4.498197   64.366554
H   66.965797    1.848880   86.230301
H   68.606300   86.123680   46.726410
H   89.742714   69.621895   85.931854
H   41.791306   41.914284   71.591003
H   43.354233   17.387251    0.264548
H   42.052921   68.156700    9.321714
H   65.202484   35.754383   42.213982
H   60.566837   53.576767    5.219333
H   65.640312   32.790180   75.257637
H   32.170124   75.504616   43.411518
H   39.601383   58.994770   38.131748
H   40.639610   97.535408   48.520607
H   47.376312   79.858414   69.817528
H   60.560398   72.014694   99.664268
H    3.920125   86.742805   96.462845
H   82.318092   58.371883   52.650223
H   26.505150   11.896580   53.573757
H   68.138969   38.307346    9.537991
H    5.336654   97.171364   80.227631
H    6.752419   49.310257   57.623104
H   58.366425   43.099941   48.738522
H   57.500378   55.695778   78.707321
H   43.586460   39.435616    5.671048
H   20.299719    2.386190    9.020452
H   65.618698   64.002563   71.602051
H   52.256596   91.437775   88.015686
H   51.726681   23.952833   37.042706
H   57.772564   42.112431   37.303986
H    4.924546   15.097413   78.600708
H   60.610641   16.218172    8.124698
H    8.933064   69.943169   63.247520
H   77.878815    0.365054   50.387718
H   23.481087   23.061428   40.858936
H   91.722244   28.732811   37.265438
H   18.578060   11.765245   92.351501
H   82.669983    3.576448   35.990593
H   52.139381   71.872314   56.926861
H   34.330334   84.887833   95.291763
H   73.351982   78.691360   70.236801
H   79.478607   96.337952    7.365345
H   95.565849   46.726372   23.120770
H   37.194969   47.516880   79.671036
H    0.196744    9.035873   62.668072
H   80.025826   25.401255   71.158226
H   94.530014   52.599342   83.944534
H   84.576302   78.989914   45.741650
H   15.738233   29.894863   63.300518
H   73.599335   90.345261    2.646016
H   47.713966   24.899937   70.825798
H   83.285759   95.837929   79.109573
H   95.638664   34.763977   83.088356
H   25.328400    7.487957   95.432205
H   98.732368   59.896919   19.473223
H   11.628332   60.401932   64.566223
H   46.467625   59.214390   63.517292
H   39.555809   36.748028   80.536873
H   49.071133   80.227768   26.827936
H    0.257741   13.408292   53.843258
H   38.126102   56.626102   29.826599
H   90.831451   61.982605   22.382185
H   74.905777    9.958938   31.936556
H    8.311330   80.842140   97.627579
H   33.937389    0.844353   51.845669
H   14.220304   11.127827   85.754234
H    9.812184   40.853691    0.152330
