100
TIME:    3.990, STEP:  3990
H   47.494537   56.117981   95.493057
H   90.281929   21.075380   29.687639
H   48.339195   60.960503   76.506874
H   82.146317   68.262138   21.457151
H   59.432983   92.573601   57.519089
H   66.152351   96.885429   73.889671
H   43.854031   30.761517    2.476147
H    6.280167   33.787548   41.845715
H   55.546120    2.671082   48.931286
H   65.804405   73.673851   63.936386
H   29.114944   26.788624   55.411854
H    3.551641   23.688501    8.916788
H   89.457047   20.307098   28.555740
H   57.519402   92.777565   60.882000
H   29.035179   13.624620   58.978245
H   41.095764   62.749077    1.835942
H    3.255007   45.877537   36.613792
H   86.401817    0.666785   61.216854
H    7.413977   45.739784   73.569977
H   85.020805   21.084124   87.990410
H   27.504456   59.001080   48.946648
H   44.905533   49.380768   79.492935
H   32.471779   62.171806   18.191410
H   48.327278   84.535461   10.740396
H   86.879303   69.733353   66.006874
H   28.360746    8.721801   15.188099
H   18.016310   76.618607   79.137978
H   95.877655   42.679413   98.658195
H   97.929062   11.096198   68.562843
H   53.987259   92.086906    0.582619
H   73.088264   79.846230   93.702843
H   17.688063   42.271255   29.889748
H   51.408283   76.555077   57.247665
H   46.688873    8.063070    3.659501
H   81.590195   57.306725   67.690201
H   19.478251   97.920563    6.914185
H   62.491013   58.413559   22.861563
H   99.079353   85.931862    4.005585
H   76.654358   94.483391   57.651512
H   87.379936   38.652824   51.959827
H   62.563461   93.091415   36.348370
H   73.022659   90.931091   90.255295
H   45.609043   87.426788   89.675713
H   24.570208   79.639923   70.855103
H   10.553083   74.465088   97.545349
H   26.611187   39.019947   99.368568
H   72.906540   41.828087   63.767815
H   56.452503   36.465668   15.456474
H   81.661362    1.998691   85.311615
H    9.559764   91.465981    4.599483
H   43.240208   84.434517   95.486740
H   99.039963   93.496918   12.125095
H   91.638496   45.144104   71.137520
H   84.293602   42.106163    7.884615
H   23.104141    8.261934   34.283344
H   98.558609    8.336935   56.797791
H   49.199612   74.416862   35.469734
H   28.952141    0.081016   10.781500
H    4.960386    7.355636    5.168240
H   95.720673   34.472927   50.125496
H   11.392632   93.019188    3.304838
H   57.301720   90.803726   14.818448
H   44.941776   35.013115   59.864189
H   17.025194   63.499115   18.810642
H   90.692192   42.169430   67.140404
H   56.233101   43.918037   82.103745
H   67.443314   86.306946   59.699627
H    4.749117   45.729996   56.947674
H   55.764687   63.090378    9.985867
H   11.224176   48.828751   93.331329
H   95.331139   23.920391   14.284851
H   44.973122   19.105011   48.751392
H   46.836349   20.945049   59.447365
H   42.376217   96.883965   66.081810
H   54.544109   34.327221    3.866644
H   19.982508   63.295776   27.453503
H   29.220751   80.720261   61.614262
H   19.437786   89.824226   34.792816
H   52.846451   41.798840   62.203232
H    3.848004   91.649742   77.179192
H   88.953903   70.560043   18.461905
H   40.699570   70.285294   53.136353
H   70.245735   73.858215    9.927746
H   24.656179   53.592110   98.992752
H   58.049576   99.306801   60.966660
H   59.464985   55.615456   18.861099
H   33.637810   13.247429   13.802187
H   20.181498   85.845314   54.248436
H   38.488388   72.015465   95.557747
H   13.568656   45.117180   66.847992
H   87.309814   88.880119   17.723307
H   73.516022   95.570854    9.554047
H   41.220161   47.237640   27.557352
H   32.876492   55.256760   95.844139
H   87.605049   92.329277    7.773452
H   23.479263   38.169930   61.360252
H   45.894684   96.658714    7.720243
H   21.512167   50.210144   92.190224
H   18.638817   54.049618   10.831970
H   87.045357   76.242134   13.370376
