100
TIME:    5.678, STEP:  5678
H   33.341957    1.320690   93.947647
H   43.662056   12.545407   36.121418
H   77.360199   82.402313   56.695118
H   82.429642   98.715729   28.931984
H   44.313721   27.874163   11.751741
H   39.971584   95.056694   41.057766
H   55.385052   44.743984   34.480076
H   73.606689   79.820786   86.858696
H   14.051857   40.376907   42.677277
H   19.675634   97.911034   30.034132
H   72.101303   94.709396   92.815910
H   39.128136    8.299400   88.763176
H   81.741989   18.230614   60.827080
H   73.940346   87.574684   89.338036
H   49.564308   62.845596   77.836884
H   73.223602   15.110530   61.717499
H   67.516121   57.525135   90.279083
H   22.488073   18.546410    2.697512
H   33.704815   16.551477   62.499393
H   39.541161   85.234413    2.917271
H   27.336143   90.954163    3.134056
H    6.735733   51.621613   35.744110
H    9.933681   48.443413   69.895981
H   91.489861    4.753634   85.375717
H   26.505867   35.866203   78.473183
H   20.662794   58.804840   56.483429
H   72.459351    6.448366   12.625887
H   53.448017   21.469536   54.459145
H   34.633873   64.244537   88.770599
H   18.713074   50.309319   34.772842
H   39.520439   31.213074   60.153648
H   24.269474   95.636475   73.623161
H   70.308830   53.052620    9.316037
H   18.010464   53.367882   32.545158
H   39.632309   29.706839   70.477722
H   66.216431   30.154396    1.574964
H   24.393421   96.593872   55.869488
H   29.310490   55.045681   23.122562
H    5.400777   57.702629   94.072243
H   28.389635   80.628227   84.767906
H   47.200272   51.007385   76.116920
H   21.703228   63.869667   69.829948
H   60.148777   97.549225   11.602372
H   16.784863    7.948016   35.900833
H   64.130165    7.868373   41.992535
H    4.831661   71.215988    6.228682
H   86.094040   33.627579   79.969048
H   56.542652   53.851532   19.900351
H   31.003616   62.196762   17.975784
H   44.962536   17.154142   86.537521
H   43.111713   21.469355   13.282315
H   81.072975   36.863338    1.310665
H   26.650639   54.931702   73.100670
H   45.200920   14.559396   82.371300
H   88.703819   56.198460   48.642780
H    0.667670    6.561018   99.334274
H   56.211197   25.710686   96.012398
H    3.260316   40.670906   67.303085
H   38.088264   78.678337   75.580681
H   84.329300   64.219315    2.114754
H   17.873096   14.519100   71.693535
H   97.394600   75.092056   38.443108
H   59.540997   19.826513   44.112946
H   32.937332   72.693604   72.983948
H   57.693916    7.351318   24.336679
H   52.537407   60.002861   81.911003
H   32.012421   44.664944   41.196671
H   88.147346   42.268650   37.643833
H   39.893383   41.801460    4.117404
H   45.420288   33.728737   89.776886
H   41.731163    9.069569   94.035957
H    5.790547   63.083191   72.339310
H   36.775604   37.448715   16.163002
H    5.216442   90.058434   65.786034
H   35.930584   36.735485   31.829475
H   59.892723   71.480400   13.872503
H   82.480827   34.414577   91.466438
H   98.743088   79.450493   28.014261
H   33.793552   36.840649   81.032707
H   21.070194   99.711586   31.756367
H   21.981546   88.023178   19.349810
H   67.360397   81.293488   11.976001
H   77.021568    2.075438   70.688339
H   40.787048   98.037521   44.819019
H   75.857506   93.722176   97.334076
H   20.610798   17.615730   36.080872
H   46.375511   90.515923   94.292389
H   47.346855   50.714855   36.705719
H   73.517685   78.030449   81.752083
H   64.328217   75.668381   27.192709
H   56.389824   80.026672   53.370770
H   98.413399   22.519083   41.714607
H   49.424164   97.886543   58.093037
H   96.024849   57.650829    9.657897
H   58.422554   41.129330   46.559910
H   62.901108   71.513702   74.172775
H   11.909643   93.529640   10.642293
H   27.317476   67.404251   64.893456
H   38.226135   61.325924   69.445900
H   91.893951   32.928379   50.761509
