100
TIME:    3.355, STEP:  3355
H   90.437653   14.350643   96.074417
H    7.944357   86.647644   89.632431
H   37.424164   15.276191   83.957970
H   82.039734   94.423332   56.265339
H   65.120621   41.675549   74.737030
H   75.996712   97.573372   11.002546
H   77.133949   87.883095   52.818306
H   56.189911   78.851730    0.148275
H   71.155632   63.723816   88.901604
H   83.157997   64.556190   39.068718
H   88.181107    1.238426   16.579241
H   27.789497   91.859650   54.116280
H   29.851204   58.725235   91.669426
H   88.961281   94.734810   12.556461
H   21.310360   70.345230   89.500435
H   66.627151   18.288666   54.547218
H   54.318031    3.878783   78.807236
H   72.836754   31.547142   83.231628
H   97.523415   19.098970   40.116177
H    2.131554   34.568790   44.756615
H   65.186264   22.216309   66.179733
H   84.027466   48.537796   33.569016
H   40.949944   67.336220   36.360748
H    7.325692   76.919647   57.903080
H    9.590543   20.090744   61.317238
H   31.274813   27.642176   74.706352
H   72.774170    3.012715   66.541847
H   49.456264   13.039749   77.671104
H   84.121765   53.483688   98.580391
H   29.638206    7.803582   50.101227
H   48.096394   22.905142   43.942024
H   77.594002   59.813789   88.674919
H    6.678606   23.014317    0.041847
H   19.858021   66.257027   30.409416
H   97.374115    5.307805   29.024460
H   64.259590   48.038334    9.106095
H    1.587578   81.667953   72.826225
H   25.323799   97.549370   59.193325
H    3.455556    8.318296   19.187761
H   47.189625   98.098938    1.998247
H    5.961720   71.300110   21.388044
H   30.092888   62.434502   60.421844
H   40.139416   83.618881   43.808552
H   65.119614   69.001038    8.768420
H   65.633171   99.521698   43.207577
H   34.803516   26.908283   96.791206
H   67.945602    7.293592   57.668381
H   56.418591   29.926138   76.166328
H   63.096840   54.587593   10.641007
H   96.243156   81.805717   49.010578
H   43.288654   45.740158   88.791412
H   68.179443   52.420815   53.813442
H   78.470695   41.462158    8.015667
H   99.002007   52.468903   79.863739
H   73.663071   52.608109   28.882940
H   97.764084    9.005499   78.414688
H    8.945071   92.739388   75.075829
H   76.236076   60.049332   27.139126
H   54.877586   80.525391   53.918774
H   37.623138   85.664352   68.186409
H   71.336586   22.549763   52.812786
H   79.839104   96.714218   43.552109
H    1.830777   78.343803    3.408062
H   73.422173   60.044868   36.052807
H   65.490242   92.885475    8.005429
H   95.242348   75.485878   44.557587
H   18.390625   64.350922   29.042349
H   48.613029    9.412879   26.591002
H   24.114487    8.717415   49.813679
H   98.358948   16.889017   94.668457
H   15.495567   67.125572   21.903088
H   97.332504   40.179306    2.258673
H   88.238861   52.353016   75.726799
H   56.357922   37.068283    3.812088
H   23.930029   33.421268   55.729893
H    4.969657   22.596300   70.179565
H   71.567940   35.757416   50.384327
H   89.604324   31.344931   99.722778
H   22.397726   43.664036   55.115486
H   34.989906   26.232830   31.884872
H   76.532181   63.990673   80.509491
H   93.053375   66.138260    6.234152
H   30.069677   63.258087   49.447025
H   80.968353   99.253265   56.988594
H   88.968231   39.027668   22.522682
H   74.078003   32.288391   74.764542
H   91.227577   59.417091   83.522598
H    9.961676   36.684830   60.851715
H   25.309669    7.371548    0.751477
H   69.712250   71.243118   44.150124
H   61.323029   54.590908    4.313272
H   26.528875   47.820190   97.453346
H    0.516720   28.183569   78.451744
H   71.501930   16.737785   53.028229
H   98.583061   49.209766   93.181969
H   71.030823   63.245918   94.158638
H   96.298584   60.217144   44.240669
H   19.181883   44.803497    2.353514
H   48.888908   51.312382   64.021553
H   47.602108   92.539589   74.542450
