100
TIME:    1.618, STEP:  1618
H    7.903881   73.642502   97.664688
H   56.262642   92.470207   80.063225
H    7.566800   90.309853    4.342025
H   81.748184   65.988487   51.476032
H   80.678772    2.447356   21.833607
H    2.926143   99.455193   38.981678
H   68.169533   70.593727   16.982567
H   92.714684   28.579601   59.635551
H   13.854469   30.729385   98.239037
H   30.623308   39.615440   71.050682
H   49.752609   31.346058   83.895294
H   94.084534    4.792741   77.758217
H   40.341278   63.816124   64.311974
H   74.967827    0.088743   80.370811
H    0.180105   25.500725   72.997787
H   36.468597   70.214897   98.733170
H   93.982697   88.997910   20.670332
H   35.720337   16.017548   43.453415
H   70.462303   46.231522   48.604008
H   48.925278   71.452499   26.493570
H   68.262222   95.139832   13.329376
H   17.492374   46.235512   81.485512
H   64.141396   81.463127   86.056717
H   68.711784   56.087101   86.907440
H   71.715080   57.851433   48.500092
H   39.240025   79.396744   37.517403
H   22.556473   75.220047   32.073704
H   96.020218   31.962475   20.254431
H   46.352829   95.889893   80.688927
H   63.034557   50.794540   12.015113
H   79.749275   67.139069   81.377869
H   67.918701    7.810423   49.477699
H   84.327591   50.101433   43.559174
H   46.465935   25.442574    3.588036
H   40.553902   36.611855   23.253662
H   13.233441   11.585794   15.077401
H   34.986473   45.282082   35.957279
H   97.117393   29.340130   36.618969
H   77.981979   45.968468   87.049255
H   10.796274   60.712353   65.336197
H   24.668991   11.700828   80.463913
H   86.204559   84.474617   78.816513
H   25.177618   73.202606   18.343479
H   76.039223   39.888100   38.933521
H   16.306385   68.050735   94.566360
H   57.213085   93.777657   89.741005
H   53.164661   13.021920   41.448921
H   56.325825   12.042215   68.690605
H   12.327435   98.447411   79.932236
H   59.824429   55.376392   70.498741
H   43.421177   13.435995   70.476791
H   83.765068   13.600401   67.844406
H   42.443130   31.390442    8.898247
H   39.222942   80.807625    3.215158
H   11.950415    0.347014   14.136007
H   95.590714   10.831507   37.546265
H   98.826843   42.860420    9.872747
H    5.577597   24.087570   71.879471
H   17.885483    7.132535   87.268768
H   52.246449   52.153576   17.589806
H   61.765453    3.328513   88.243889
H   41.485168   12.884600   22.144676
H   83.980972   96.817390   22.557228
H   54.145325   50.596008   83.212196
H   96.542625   31.616791   46.242657
H    1.949097   61.837471   41.854137
H   57.753525    4.302345   45.179882
H   68.599419   10.071965   43.552357
H   37.543488   33.527161   58.755653
H   63.161263   29.523352   98.326080
H   70.653419   85.311775   42.742069
H   40.555531   97.826630   75.084801
H    1.494523   38.272961   20.260349
H   94.580681   46.989861    7.046043
H   40.181892   30.945921   24.053535
H   63.912807   11.270826   87.058678
H   13.858519   86.309799   19.662931
H    7.996912   44.924019    3.794962
H   39.108231   48.762547   35.731010
H   20.175888   20.833822   81.529091
H   42.545025   46.020611   76.692863
H   62.724438   54.794327   51.481522
H   20.173504   34.262146   84.006439
H   61.475193   50.615948   15.643532
H   73.546143   47.678093   90.905579
H   14.051144   68.488594   54.142128
H   75.217278   85.711136    0.695484
H   82.001770   75.753662   78.924782
H   89.259956    4.084962   14.962019
H   23.285221   42.707214   82.056740
H   90.237740   60.797436   67.630936
H   98.002571   17.194960   64.349205
H   89.098412   76.111313   44.088211
H    3.612969   11.375867   35.912247
H   28.618580    4.798275   53.266167
H   27.561783   31.837290   83.877014
H   34.172745   60.534161   44.136627
H   12.805888   30.013977   30.148499
H   31.634117   43.824856    9.519375
H   39.724655   37.143230   41.849556
