100
TIME:    5.551, STEP:  5551
H   41.930580   12.966954   94.063919
H   47.169594    5.663276   28.113422
H   75.176224   73.265274   58.186306
H   82.408325    3.948322   35.893555
H   45.451248   17.694551   15.195087
H   41.941425   95.194283   28.480181
H   62.040653   36.167957   24.548510
H   83.588638   68.833084   98.518837
H   17.173759   52.587402   50.671944
H   23.145868   96.087502   25.060598
H   83.914536   89.599243    5.049442
H   43.975708    1.933751   97.803322
H   89.846146   25.910862   73.446465
H   80.228722   87.966133   79.673897
H   48.019829   74.189865   83.941162
H   78.329880   26.218399   72.259491
H   77.728676   49.125454   78.717773
H   19.772154   24.725780    7.099859
H   31.727154   11.223315   55.808910
H   42.962463   87.931923   94.270546
H   34.872505    3.597063    6.581036
H   94.560120   51.453018   46.559341
H   11.629556   49.476295   73.529480
H    3.289677    3.234347   94.807312
H   31.047741   45.938263   77.535255
H   21.241732   62.559456   68.425888
H   83.410233   11.727804   10.105934
H   64.163460   15.541603   50.260757
H   31.872414   52.721989   94.774109
H   13.843594   53.452538   24.676910
H   34.521713   19.824718   70.201485
H   16.250584   99.145950   85.380196
H   61.363354   62.344688   97.874870
H   12.644179   65.006706   37.895607
H   42.789093   39.307144   62.743858
H   55.176411   20.206844    1.974376
H   12.212480    1.244863   45.862347
H   34.559200   57.370152   14.160851
H   10.761701   60.469902    6.379426
H   40.351261   92.517036   74.776268
H   55.879974   46.650093   73.124855
H   32.728233   60.991264   63.585491
H   59.054852   96.787643    2.429167
H   24.893864    5.816242   23.483622
H   75.146935   12.878968   31.124941
H    6.470490   68.793655    5.712725
H   85.101852   26.720654   78.750130
H   56.535870   52.543472   12.042304
H   27.291634   72.715332   23.041851
H   42.298939   15.221121   95.420700
H   43.121113   33.730652   11.943492
H   74.900871   48.648472    9.648254
H   24.016109   54.195312   80.476189
H   48.141632   16.631775   76.766991
H   98.815605   45.068325   47.562420
H    0.509476    6.694610    3.657669
H   48.160332   29.375191   83.933678
H   12.716861   52.664360   70.574203
H   28.072401   73.312386   85.330086
H   92.710571   54.457333    5.726936
H    9.861658   20.425171   81.596031
H    1.901897   76.274155   44.189850
H   50.918461   28.493135   52.821716
H   24.216396   72.001785   76.431412
H   52.652557   17.494602   12.509398
H   60.339256   66.316429   74.401772
H   42.201721   40.274708   35.065262
H   96.920067   35.005527   31.572500
H   33.563343   50.926872   12.082761
H   42.847771   27.340916   90.044312
H   45.763863   17.710709   95.559120
H   16.262081   67.298050   63.041328
H   45.056107   43.730309   19.419586
H    8.011814   98.096703   73.332085
H   29.807722   36.554295   22.201672
H   56.889999   63.341286   22.417948
H   70.950523   45.422626   89.220451
H   92.776398   87.754250   21.000154
H   27.703808   37.213688   79.616127
H   27.297043    6.629540   42.697571
H   19.496233   86.709305   11.759538
H   57.828659   80.469894   22.599775
H   68.989113   99.951721   58.593685
H   32.050179   87.169968   56.418118
H   82.041237    1.665657    9.645168
H   23.534069   12.950801   27.261642
H   37.893471   99.749855   88.236557
H   45.304344   60.877995   38.022499
H   70.882187   85.101723   82.790779
H   75.556213   80.892868   22.652773
H   51.192467   73.168564   50.688763
H   89.016685   12.967748   39.295181
H   41.283188   94.076698   48.271931
H   83.750404   49.945873    1.094611
H   60.618156   52.505573   43.641483
H   52.411438   76.528900   80.732452
H   21.990038   86.241325   17.946289
H   27.240629   63.501129   67.204124
H   44.276154   60.778477   80.082848
H   84.004898   36.186901   62.996227
