100
TIME:    3.662, STEP:  3662
H   69.676178   86.197327   95.793350
H   99.404320    3.291774    8.997692
H   42.701195   37.362480   80.355629
H   82.091263   81.775322   39.436459
H   62.370850   66.282951   66.412766
H   71.237312   97.240776   41.406242
H   61.043301    8.612616   76.826103
H   32.060318    5.412159   71.961937
H   63.608986   34.207108   69.578255
H   74.768150   68.964256   51.091354
H   59.624710   13.590862   87.006996
H   16.071350    7.247795   32.263329
H   10.323081   40.151398   61.155151
H   73.760246   93.788551   35.920147
H   25.045036   42.922470   74.744423
H   54.283630   91.437065   29.063684
H   29.630989   24.183872    6.754659
H   79.394981   16.617805   72.588562
H    2.305555   31.978861   56.289234
H   93.859428   28.049669   65.658623
H   46.968445   91.653320   57.847832
H   13.459854   48.945343    7.425117
H   36.851051   64.839409   27.576817
H   78.802010   80.601624   35.101528
H   98.610748   95.743729   63.584511
H   29.865965   18.494619   45.931259
H   46.300785   90.251907   72.631630
H   23.553225   27.369476   87.817619
H   90.797104   81.337418   84.067970
H   41.409988    0.204838   74.507202
H   60.179928   50.433689   19.653160
H   96.978249   51.332596   60.254372
H   28.303442    0.553466   27.698835
H   32.830353   38.122231   17.476826
H   89.743149   82.100914   47.717751
H   90.956261   72.155426    8.046239
H   31.032784   70.425278   97.016716
H   12.635816   91.932716   80.858376
H   90.497864    1.630075   89.437523
H   18.274311   69.359848   26.152433
H   84.980331   81.835434   28.620832
H    2.501437   76.211731   74.845261
H   42.783787   85.459869   65.982597
H   45.515198   74.144562   38.784927
H   39.004284   87.407715   69.477966
H   30.842815   32.763844   98.037270
H   70.344040   23.990124   60.617241
H   56.434986   33.087372   95.161766
H   72.072006   29.162750   98.394379
H    2.680553   86.476112   27.539410
H   43.265232   16.101025   92.028366
H   83.099411   23.932674   33.658604
H   84.836861   43.242249   90.186104
H   91.891014   47.458885   93.411163
H   49.219620   79.514587   31.493349
H   98.148209    8.682272   67.963684
H   28.406824   83.881096    4.274064
H   53.375969   31.057243   19.230606
H   79.090614   93.496628   30.349056
H   17.365242    9.260832   59.454597
H   90.702095    8.273053   28.877598
H   68.943077   93.856705   29.660378
H   22.673075   57.394951   82.356133
H   94.502190   61.714874   27.716831
H   77.674492   68.367073   36.595600
H   76.382759   60.223946   62.709824
H   93.758987   74.965881   43.864178
H   27.406532   26.971361   41.267376
H   39.416237   86.658371   30.558254
H    4.578943   32.330154   94.022003
H    5.746645   46.237617   18.219940
H   72.017746   29.990631   24.735840
H   68.222214   37.168377   67.856926
H   49.598263   17.640400   85.570824
H   38.731182   33.859264   79.002235
H   12.227746   42.272766   49.522793
H   99.440407    9.148415   55.813602
H    4.027750   11.270899   16.677645
H   37.118607   42.762280   58.542160
H   19.934090    9.512863    5.436684
H   82.537643   67.166733   98.858475
H   16.088058   68.143204   80.563110
H   49.493740   68.382874   78.687347
H    2.090414   25.524437   28.949829
H   74.020157   19.823772   92.762680
H   67.013855   43.566200   96.083466
H   11.731436   37.095695   98.161499
H   14.902597   12.105623   57.659264
H   31.681690   90.278282   98.240364
H   42.568707   58.612846   55.123444
H   73.886719   71.167839   10.796548
H   49.245827   70.906792    3.303791
H   20.195351   37.395538    2.192546
H    1.173300   35.359848   73.727562
H   93.275581   21.709713    0.236728
H   96.387741   51.122566   78.301781
H   71.930084   77.835350   26.584623
H   20.308493   47.417419   97.440346
H   34.264061   52.635738   38.306274
H   66.670479   84.660347   44.968018
