100
TIME:    1.143, STEP:  1143
H   40.025551   17.202278   98.099564
H   69.475609   66.718330   50.100307
H   99.402771   56.135891    9.919174
H   81.668457   85.557884   77.512321
H   84.933304   64.374016   34.713051
H   10.292126   99.969795   91.940575
H   93.066154   38.518780   79.836861
H   30.048752   87.486099    3.246885
H   25.530876   76.398560   28.138914
H   43.604149   32.795143   52.450256
H   93.935959   12.233459   29.650251
H   12.213993   80.983482   11.569250
H   70.555038   92.554146   11.524346
H   98.487343    1.553170   44.223431
H   94.403465   67.927063   95.828751
H   55.566879   11.761013   38.161606
H   32.171028   57.585403   77.422874
H   25.569618   39.116684   59.920700
H   63.062630   26.303354   23.580545
H   61.721489   81.541611   94.153435
H   96.449402   42.428490   26.221622
H   71.946098   45.608566   21.930622
H   70.483330   85.326271   99.646576
H   12.844482   50.390232   22.185036
H   88.704216   95.525551   44.995720
H   41.418026   93.551941   82.039246
H   63.517700   94.963394   22.647779
H   36.098068    9.790818    4.553714
H   36.024536   52.793736    3.142797
H   44.820522   62.550674   74.253929
H   61.064121   24.542696   18.964764
H   37.926792   20.933350   93.450859
H   50.869747   84.855232    0.767419
H   26.396431   68.973610   23.598211
H   52.360771   72.518074   94.330093
H   71.934204   74.272842   16.711432
H   89.427605   62.677101   98.529366
H   16.749657   38.034016    3.100658
H   99.334366   56.108315   32.575806
H   55.534950    5.178961   27.962595
H   57.128822   95.401756   69.273117
H   28.894859   63.158325   56.500156
H   21.086164   70.354172   84.033089
H    6.371502   31.926271   92.490608
H   57.507904   86.793869   53.919098
H   63.341206   84.717751   87.813057
H   48.149097   87.398987   37.390083
H   56.300457    7.151678   39.300274
H   98.443413   37.785728   98.878311
H   49.862156   48.146587    3.722844
H   43.457417   59.294350   65.468475
H   60.680428   57.677898   99.024979
H   32.589577   28.636230   36.485954
H   50.221668   88.555656   82.254410
H   49.766365   58.707211   10.105255
H   94.996384   11.330708   53.716385
H   68.711716   56.566246   64.696251
H   40.948181   68.945412   84.113968
H   80.422661   87.062668   23.734264
H   83.592361   15.642157   31.099937
H   31.802519   25.417084   25.278694
H   58.343842   17.306473   43.638397
H   51.762573   29.209888   55.143898
H   21.526621   48.012123   96.106255
H   77.690773   69.555504    2.006177
H   31.128883   85.451210   13.768503
H   95.863113   87.879150   22.246677
H    1.410813   82.906174   20.844610
H   13.868223   67.657639   88.545265
H   53.539642    5.632031   99.326294
H   85.736351   17.631266   48.438938
H   79.721146   13.591650   40.306786
H   32.466614   61.767109   32.440487
H    5.033566   77.049057   35.276711
H   17.280910   30.270052   88.044731
H   52.682148   80.828758   19.020584
H   70.732719   27.479162   11.259035
H   85.680542   75.983604   77.564301
H   16.338877   50.154148   30.433315
H   43.470718   46.704506   22.450592
H   33.249561   41.106518   48.302746
H   27.083019   51.692215   91.200150
H   90.118141   26.334211   38.764896
H   28.797926    9.969583   59.029610
H   96.674271   77.389328   36.951347
H   24.984638   51.040150   21.156822
H   43.493111   20.247520   78.045700
H   74.355209   13.783188   83.860619
H   79.402779   30.531237   18.848476
H   65.281235   62.251244   65.074852
H   70.798805   35.150654   57.599804
H   62.857380   81.470802   55.300034
H   58.620888   61.876930    7.340230
H   57.703888   82.564552    3.885760
H   36.831226   47.347183   42.350792
H   88.328674   50.594902    8.411516
H   71.876450   33.274715   71.454056
H   11.061856   25.969635   37.748390
H   54.262108   41.777317   49.306858
H   10.225601   49.345112   87.598457
