100
TIME:    9.014, STEP:  9014
H    7.742339   95.395027   90.893448
H   51.531265   93.318802   46.466984
H   34.713276   22.406963   17.529716
H   82.989578   61.273796   46.075089
H   14.425989   95.269104   21.298931
H   88.236084   91.442558   71.433228
H   80.545738   70.007439   95.359703
H   11.403671   68.426559   80.558449
H   32.046547   19.632961   32.687656
H   28.555342   45.812687   60.655281
H   61.794708   28.939011   71.474632
H   11.800705   75.515907   51.302437
H   68.956772   16.383034   29.321209
H    8.762460   77.292213   43.209988
H   90.090034   64.857918   17.418068
H   39.090454   23.331688   84.799866
H   99.254646   78.176323   93.968330
H   93.823380   56.217674   87.056717
H   85.662262   56.503429   38.253757
H   49.661152   14.391653   30.047602
H   29.373177   58.845947   12.589231
H   26.561304   56.050201   51.652908
H   65.392311   21.316957   74.449051
H   81.527649   44.661835   37.616047
H    7.192676   71.305862    3.108920
H    5.104465   60.370773   42.624607
H   84.791893   67.777542   78.819626
H   71.965820   77.182755   64.729942
H    7.171500   66.912590   31.074623
H   46.629356   67.742905   99.976227
H   70.814888   30.358860   96.220108
H   34.906666    3.466572   64.792946
H    5.290237    8.975544    9.849263
H   58.965195   47.643341   92.006599
H   56.622200   77.183723   73.472626
H   56.208973   91.447174   91.088081
H   44.358711   74.422615   18.733114
H   91.427147   93.991219   58.532974
H   64.590385   85.018272   70.788895
H   14.175753   68.323647   47.237770
H   19.208372   65.472015   54.710415
H   40.563141   76.951569   40.141438
H   88.861664   17.560551   52.562664
H    3.771092   63.949112   62.074314
H   74.757477   76.255089   27.464067
H   61.770447   34.839062   19.781691
H   12.164704   15.050226   11.994350
H   56.737789   88.211273   26.312382
H   28.518570   85.910866   84.902161
H   14.987852   67.934258   53.274639
H   42.882648   99.399529   48.450226
H   43.209820   27.306351   82.322945
H   95.841988   74.274963   79.354202
H   67.944580   60.136818   29.578403
H   23.086983   48.549133   77.009705
H    4.822685    3.051870   85.768951
H   67.699081   29.451515   13.293958
H   54.854675   25.626337   81.374657
H    1.193515   19.642412   19.480360
H   64.186317   20.633846    7.230980
H   28.310972   59.376858   11.594355
H   78.993431   44.041031   87.500084
H   86.021332   92.183495   15.353424
H   62.016384   90.866089   82.409805
H   90.104080   40.910847   35.003635
H   47.604561   94.161064   79.162392
H   64.358414   59.997219    2.257340
H   57.707138   33.058357   97.123932
H    6.157409    2.097783   94.889709
H   13.094649    1.395484   82.725067
H   35.791492   82.086952   54.025948
H   30.986532   52.300194   16.768742
H   19.262253   72.440117   30.630627
H   31.775845   78.923256   67.572365
H   96.685211   41.587864   84.749252
H   38.754753   85.286003   89.401566
H   85.446121   45.616299   50.608765
H   55.467533   61.323265   12.258513
H   93.768227   27.041759   18.252817
H   57.470177   17.983934   44.357018
H   87.279457   22.536325   18.737907
H   17.699711    2.930548   32.893013
H   88.029503   57.864170   88.390648
H   70.296898   83.506569   40.127415
H   13.424301   85.040512   73.947479
H   43.835400   40.153183   67.742706
H   69.179527   47.960930   53.365517
H    0.998879   83.765663    2.116810
H   42.751713   92.287590   54.467903
H   69.380966   38.416412   46.444695
H   92.912682   60.158672   23.821312
H   45.243618   73.418457    5.281985
H   63.268284   97.978691   16.071039
H   18.433752   60.041859   34.597698
H    0.742578   42.310818   23.217775
H   38.441055   39.778381    1.863927
H   47.113182   84.973839   18.784851
H   20.878206   32.473522   97.922935
H   79.306938   75.726830   90.020134
H   99.106583   47.319279   29.392750
