100
TIME:    5.517, STEP:  5517
H   44.229897   16.084869   94.095047
H   48.108620    3.820795   25.969616
H   74.591537   70.819138   58.585522
H   82.402618    5.349209   37.757339
H   45.755783   14.969301   16.116920
H   42.468784   95.231117   25.113047
H   63.822468   33.872013   21.889666
H   86.260971   65.891495    1.640553
H   18.009544   55.856354   52.812248
H   24.074907   95.599312   23.729101
H   87.077133   88.231171    8.324490
H   45.273483    0.229554    0.223505
H   92.015762   27.966991   76.824883
H   81.912224   88.070930   77.086647
H   47.606346   77.226913   85.575378
H   79.696915   29.192154   75.081757
H   80.462746   46.876720   75.622620
H   19.045057   26.380100    8.278440
H   31.197590    9.796878   54.017757
H   43.878403   88.654091   91.955666
H   36.890114    6.981936    7.503849
H   91.300507   51.407883   49.454758
H   12.083570   49.752815   74.502228
H    6.448776    2.827608   97.332306
H   32.263702   48.634720   77.284157
H   21.396723   63.564629   71.623245
H   86.341965   13.141207    9.431301
H   67.032417   13.954597   49.136780
H   31.133125   49.637211   96.381348
H   12.539917   54.294029   21.974098
H   33.183472   16.775867   72.891457
H   14.103851    0.085466   88.527748
H   58.968319   64.832329   94.811882
H   11.207561   68.122612   39.328011
H   43.634216   41.877274   60.673592
H   52.220814   17.543720    2.081300
H    8.951440    2.490094   43.183270
H   35.964367   57.992451   11.761600
H   12.196893   61.210747    9.674204
H   43.553547   95.699867   72.101341
H   58.203674   45.483574   72.323830
H   35.783958   59.465218   61.988369
H   58.761990   96.583755   99.973335
H   27.064777    5.245531   20.159288
H   78.096306   14.220387   28.215387
H    6.909232   68.145157    5.574595
H   84.836227   24.871525   78.423805
H   56.534054   52.193283    9.938575
H   26.297874   75.531372   24.398121
H   41.585850   14.703619   97.798874
H   43.123707   37.013092   11.585067
H   73.248497   51.803547   11.880386
H   23.310802   53.998169   82.450737
H   48.928909   17.186630   75.266624
H    1.522756   42.088604   47.273190
H    0.467127    6.730374    4.815109
H   46.004982   30.356239   80.700005
H   15.248534   55.875206   71.449936
H   25.390989   71.875832   87.940163
H   94.954376   51.843884    6.693977
H    7.716879   22.006340   84.247093
H    3.108510   76.590622   45.728348
H   48.610065   30.813334   55.153198
H   21.881672   71.816574   77.354355
H   51.302902   20.210125    9.343040
H   62.427940   68.006676   72.391426
H   44.929565   39.099369   33.423782
H   99.268669   33.061069   29.947104
H   31.868689   53.369896   14.215219
H   42.159065   25.630825   90.115906
H   46.843483   20.024033   95.966896
H   19.065540   68.426437   60.551872
H   47.272934   45.411995   20.291428
H    8.760181    0.248664   75.352287
H   28.168447   36.505787   19.624149
H   56.086121   61.162071   24.705721
H   67.863670   48.369663   88.619164
H   91.179016   89.977303   19.122362
H   26.073483   37.313557   79.236885
H   28.964073    8.481587   45.626709
H   18.830873   86.357559    9.727468
H   55.276947   80.249405   25.443960
H   66.838692   99.383118   55.355602
H   29.711046   84.260544   59.523388
H   83.696724    3.792424   12.941032
H   24.316677   11.701922   24.900589
H   35.622688    2.221967   86.615311
H   44.757530   63.598835   38.375023
H   70.176620   86.994820   83.068855
H   78.562134   82.291550   21.437357
H   49.801048   71.332535   49.970745
H   86.501030   10.410653   38.647461
H   39.103714   93.056740   45.642658
H   80.464333   47.883129   98.802055
H   61.205956   55.551182   42.860172
H   49.603180   77.871552   82.488586
H   24.688700   84.290123   19.901642
H   27.115858   63.211639   67.748344
H   45.895844   60.631916   82.930534
H   81.892868   37.059261   66.271484
