100
TIME:    8.959, STEP:  8959
H   11.461717    0.438805   90.943802
H   53.050278   90.338684   42.998852
H   33.767879   18.450188   18.175297
H   82.980347   63.539726   49.090034
H   14.918829   90.860611   22.790039
H   89.088745   91.502144   65.986603
H   83.428505   66.293831   91.058632
H   15.726562   63.668133   85.608116
H   33.398552   24.921181   36.149914
H   30.057779   45.022968   58.501808
H   66.910675   26.726162   76.772713
H   13.900047   72.759026   55.217461
H   72.463928   19.711853   34.786819
H   11.485667   77.461739   39.024311
H   89.422005   69.770790   20.062912
H   41.301834   28.142174   89.365295
H    3.677468   74.538246   88.961464
H   92.646774   58.893990   88.963455
H   84.805405   54.195957   35.356304
H   51.142818   15.559656   26.302942
H   32.636955   64.321503   14.082018
H   21.288401   55.977188   56.336670
H   66.126640   21.764059   76.022614
H   86.637741   44.003876   41.701015
H    9.159734   75.667358    2.702915
H    5.363894   61.992172   47.800579
H   89.534401   70.063614   77.728622
H   76.606781   74.615540   62.911911
H    5.975540   61.922512   33.674492
H   44.520363   69.104141   95.603821
H   68.650505   25.426895    0.571527
H   31.433918    4.986057   69.884575
H    1.416022   12.999458    4.894429
H   56.641357   52.683777   94.323723
H   57.990990   81.348000   70.126602
H   51.427860   87.139389   91.260963
H   39.083710   76.436775   14.399352
H   93.700630   94.997459   54.651939
H   66.911705   86.216698   76.118866
H   19.356131   73.472343   42.910263
H   22.967089   63.584671   53.414639
H   45.198227   76.735886   37.333782
H   88.388336   17.230522   48.590153
H    7.282814   63.025536   56.696926
H   79.528519   78.424507   22.757437
H   62.480019   33.790020   19.558245
H   11.734702   12.058989   11.466158
H   56.734432   87.644791   22.909290
H   26.911018   90.466225   87.095917
H   13.833382   67.096703   57.120426
H   42.886425    4.709545   47.870316
H   40.536861   32.409954   85.933327
H   94.701469   73.956055   82.548325
H   69.218536   61.034378   27.151550
H   27.466312   43.728996   76.542252
H    4.754183    3.109725   87.641281
H   64.212067   31.038506    8.062911
H   58.950134   30.820562   82.791283
H   96.855568   17.318365   23.702753
H   67.816002   16.406208    8.795311
H   24.841372   61.934422   15.882523
H   80.945488   44.552963   89.988411
H   82.287582   95.936546   19.124939
H   58.239414   90.566483   83.902802
H   87.921234   45.303814   29.881708
H   50.983315   96.895287   75.910362
H   68.771103   58.095936   99.601852
H   61.506348   29.912773   94.494614
H    3.416111    6.049721   98.338959
H   11.977630   98.632889   82.841721
H   37.538357   85.829094   54.685585
H   35.515503   54.126366   12.737359
H   22.848297   75.160912   32.040958
H   32.986439   82.404396   70.840340
H   94.035751   41.506878   80.579102
H   37.454361   81.761223   93.102585
H   80.451004   50.376850   49.633156
H   52.883953   64.919380    9.220908
H   91.130516   27.203312   17.638918
H   60.167473   20.980207   49.095329
H   86.202721   21.967325   15.450612
H   13.572632    2.573506   37.494110
H   84.550880   56.944370   83.152992
H   66.512794   78.800148   45.150646
H   16.102295   88.481369   79.279129
H   45.101383   38.132729   63.923355
H   65.506203   51.959877   50.742912
H    0.114394   88.166603    2.687043
H   41.610355   95.349953   54.917732
H   74.243484   40.679405   44.478790
H   90.661858   57.189045   22.659813
H   41.174175   69.281876    4.234149
H   59.742664   96.328758   11.817805
H   13.118258   56.705067   30.889189
H    1.693600   47.237537   21.954100
H   33.898285   41.950317    4.704836
H   51.478874   81.817482   21.948132
H   20.984369   29.752136   99.027367
H   81.927025   75.489326   94.626686
H   95.690063   48.730450   34.691250
