100
TIME:    7.443, STEP:  7443
H   13.982725   39.461922   92.331741
H   94.919785    8.188222   47.410725
H    7.709298    9.383430   35.971127
H   82.725891   25.999413   32.186123
H   28.503286   69.346611   63.894882
H   12.595866   93.144539   15.851017
H   62.880779   63.926090   72.505447
H   34.881172   32.515949   24.802032
H   70.664726   70.679260   31.576134
H   71.464912   23.255449   99.141304
H    7.925293   65.727844   22.802408
H   71.764008   96.769943   63.128136
H   69.134300   11.471106   85.441658
H   86.548653   82.134468   23.655476
H   71.008675    5.187370   92.969025
H    2.255700   60.737000   15.206766
H   25.585426   74.266647   50.954006
H   60.232937   32.662491   41.513779
H   61.188679   90.595520   55.486629
H   91.990860   47.751240   23.086618
H   22.598541   15.242752   55.225376
H   75.947998   53.964676   85.438095
H   86.367424   34.088783   19.397245
H   27.495577   25.868135   54.292580
H   63.379829   95.892212   91.508156
H   12.512951    6.682941   90.463097
H   20.260344   33.079788   47.650318
H    4.523515    3.853768   12.797761
H   73.011635   24.379065    5.338098
H   86.391266    6.625277   75.085869
H    8.983468   89.483932   20.512535
H   35.712734   46.867786   10.228233
H   94.631477   23.916811   68.321175
H   92.585777   91.616249   58.189316
H   95.719810   96.130516   77.890411
H   19.644955   68.396469   96.026222
H   93.679733   31.957636   94.944733
H   56.357941   22.741032   47.672501
H   30.900723   19.246305   23.030170
H   62.145103   15.394330   23.633883
H   26.574888   11.571637   17.698332
H   72.958412   70.790878   59.936939
H   75.341705    8.136236   39.089062
H    4.083919   37.572960    8.472947
H   11.031059   38.229000   93.027290
H   82.049065    4.879882   13.399263
H   99.883102   29.614342   96.909126
H   56.641903   72.030472   29.108181
H   82.596260   16.021244   47.570572
H   82.007080   44.020657   63.118958
H   42.990520   51.070099   31.885921
H   66.858368   73.084229   85.450073
H   63.264370   65.165771   70.592049
H    4.331970   85.764221   60.255203
H   48.172440   10.873488   63.657238
H    2.866007    4.704410   39.249512
H   68.104507   74.781731   63.878685
H   71.834641   73.987785   21.840765
H   77.287651   53.261280   40.086662
H   67.856361   99.880875   51.913963
H   29.211145   32.438057   34.081039
H   34.751320   58.663681   58.583572
H   79.366386   99.385651   23.081604
H   54.138058   82.308243   25.061398
H   27.747501   66.385345   88.702858
H   44.112091   72.259789   86.272095
H   90.402313    5.687257   26.410734
H   66.226814   43.210930   22.021042
H   27.859978   14.979813   93.420135
H   81.188225   22.487581   86.057114
H   85.683083   88.980148   72.867592
H   60.353558    4.462546    1.615802
H   21.693792   50.150494   70.912903
H   66.355629   78.351379   60.915680
H   21.007875   39.274609   65.634964
H    1.611777   84.599632   95.110329
H   42.766315   81.590157   22.743818
H   81.666000   64.042198   25.488352
H   18.432867   31.656284    0.720207
H   34.512772    3.563560   79.700142
H   56.523949    6.283608   24.840836
H   99.813972   92.739624   64.321770
H   88.661324   31.591345   38.777092
H   62.214664   49.072994   83.614067
H   89.917542   83.316551   26.237112
H   79.991196   82.448624   58.647736
H   64.255928   62.185738   78.454277
H   75.732933    9.477259   18.405586
H   10.146379   79.758125   67.316658
H    8.277160    3.049046   90.286484
H   28.620960   75.331291   90.644333
H   29.005526   55.263947   75.343452
H   62.564137   50.847263   94.583199
H   66.602577   64.731041   28.668833
H   27.907963   83.031082   87.119141
H    8.682921    1.816654   83.008171
H   71.812065   94.818405    9.134833
H   23.910608   54.737858   29.463903
H   54.145653   68.942879   21.607777
H    1.525616   87.634476   80.732712
