100
TIME:    8.027, STEP:  8027
H   74.489006   85.907097   91.797073
H   78.790634   39.835835   84.233536
H   17.747705   51.398224   29.114948
H   82.823914    1.937126    0.174648
H   23.270224   16.156696   48.059799
H    3.538814   92.511848   73.687355
H   32.275494    3.358215   18.175022
H   88.979919   83.039299   71.182014
H   56.308891   14.529548   94.815704
H   55.513985   31.640825   22.009258
H   53.603043   89.226501   66.547348
H   49.474358   26.042416   21.558262
H   31.894676   76.121735   27.406084
H   57.632027   80.334419   68.099342
H   78.101936   53.021622   64.881134
H   78.774673    9.658247   66.729767
H   78.623390   12.895185    4.117833
H   72.718781    4.245276   21.270958
H   70.285568   15.094792   86.255539
H   76.253799   35.351398   62.848091
H   87.943169   57.104877   39.376926
H   31.936647   54.739944   35.705063
H   78.570183   29.340399    2.687531
H   73.234543   32.854462   10.918593
H   42.492134   49.579666   95.821144
H    9.759411   89.467514   35.505829
H   69.902618    8.803206   59.239246
H   55.246056   31.112921   32.101700
H   85.709999   77.364334   77.731743
H    8.784458   92.170914   21.511917
H   31.967848   41.852188   74.308388
H   72.586998   30.734180   56.164467
H   35.767834   81.189079   20.932508
H   17.261547   38.095985   33.585678
H   81.185753   51.913475   13.420450
H   70.411133   14.138024   94.190529
H   49.692356   10.568689   40.961452
H   32.222137   12.052540   88.884727
H    6.248476    6.523436   66.436409
H    7.140129   60.723320   69.583191
H   86.663300   31.608320   31.457121
H   23.742226   73.081039   89.752983
H   80.367584   11.639425   81.271736
H   66.791229   47.375206   65.571930
H   60.372078   15.189226   43.002350
H   74.510246   16.016727   15.771852
H    4.448311   61.373787    2.515846
H   56.677547   78.045486   65.242821
H   99.669991   67.653023   24.273155
H   94.268799   52.909512   22.284222
H   42.950420   94.688103   38.043472
H   95.240326   18.892458   47.114380
H   75.374870   68.552002   36.676277
H   90.806305   76.238220   86.026199
H    1.672771   62.053772   68.621048
H    3.593378    4.090098   19.368774
H    5.129777   57.930779   19.422081
H   28.348501   18.836252    6.797227
H   23.346653   77.938148   95.253159
H   29.319725   44.770611   35.303612
H   66.049942    5.279627   88.548103
H   14.024025   53.227890   32.157608
H   19.013176   59.535065   83.034973
H   94.239250   85.489517    9.204515
H   50.929405   19.740831   43.088806
H    8.237347   43.227318   20.803242
H   43.547577   25.877151   54.605999
H   25.886116   76.609856   49.939621
H   56.968193   73.017311   56.794502
H   93.048943   51.818577   84.818466
H   67.139015   49.245407   65.863441
H   12.263801   85.071678   44.421703
H   83.615448   21.264227   55.939671
H   53.500507   41.390728   26.216101
H   49.139450   40.134533    9.914160
H   15.418674   22.027817   55.813164
H   95.805382   31.043304   33.101021
H    9.102435   25.857189   57.742199
H   46.436104   29.940891    7.237614
H    5.874072   71.750633   29.387886
H   67.956932   12.325356   59.745743
H   43.635811   96.526855   15.465702
H   25.599798   41.357944   94.393494
H    2.394631   99.046631   30.274845
H   61.482117   46.783009   69.625404
H   66.553207    3.898127   99.202301
H    3.259979   19.724190    6.301655
H   85.125267   62.746704   12.350471
H   22.267746   47.241402   62.540291
H   56.644901   79.024063   11.163685
H   52.520618    6.867036    2.977456
H   72.215614   99.186920   86.473457
H   99.999802   68.369896   39.744812
H   23.044706    0.161704   68.047066
H   17.809422   30.719894    0.539260
H   56.918884   78.754761   52.843987
H   25.456667   28.331825   75.548470
H   22.783350   83.635231   17.739080
H   26.325096   71.464729   72.692619
H   37.798809   72.645950   24.473598
