100
TIME:    8.492, STEP:  8492
H   43.042473   43.264122   91.371353
H   65.948074   65.034775   13.552375
H   25.740602   84.852737   23.656860
H   82.901962   82.779533   74.688179
H   19.103487   53.428501   35.451385
H   96.328613   92.008080   19.736870
H    7.905097   34.758621   54.538624
H   52.431839   23.268099   28.486420
H   44.878304   69.821472   65.547440
H   42.813332   38.317539   40.216866
H   10.349869    7.936681   21.757429
H   31.725372   49.350597   88.459572
H    2.242924   47.976555   81.195267
H   34.607658   78.901161    3.484115
H   83.749825   11.485519   42.520042
H   60.078461   68.987572   28.130955
H   41.230965   43.650013   46.448616
H   82.659348   81.618340    5.152645
H   77.529907   34.603420   10.754291
H   63.723515   25.477064   94.507484
H   60.349403   10.811352   26.757132
H   76.516655   55.357239   96.106064
H   72.361763   25.560358   89.383591
H   30.028326   38.417206   76.384842
H   25.861320   12.701653   99.255287
H    7.566673   75.759323   91.747040
H   29.803938   89.474442   68.465012
H   16.011667   52.817554   47.473747
H   95.820854   19.552706   55.750389
H   26.613625   80.662277   58.478119
H   50.270267   83.549599   37.519066
H    1.947466   17.888073   13.117058
H   68.522964   47.166939   62.823380
H   36.909866   95.481659   13.997084
H   69.613258   16.706413   41.713024
H   10.832796   50.561066   92.728889
H   94.292503   93.538826   77.601768
H   13.002802    3.542558   21.698425
H   86.621819   96.392418   21.374344
H   63.340981   17.190485    6.167046
H   54.883286   47.562187   42.412319
H   84.554321   74.904541   13.492852
H   84.369354   14.428780   14.859888
H   37.100941   55.183533   11.038013
H   20.038033   96.844841   82.794365
H   68.507591   24.884125   17.660986
H    8.083592   86.661568    6.981424
H   56.705929   82.834839   94.014412
H   13.261444   29.142746    5.723679
H    4.030878   59.987110   89.771843
H   42.918491   49.795906   42.946350
H   17.839903   75.744873   16.589344
H   85.017433   71.248230    9.669958
H   80.035583   68.653305    6.545359
H   64.649239    2.802637   72.573151
H    4.172535    3.600964    3.539078
H   34.607681   44.513496   63.647316
H   93.724304   74.922523   94.819725
H   60.022030   97.585136   59.556076
H   98.635323   80.511734   22.077904
H   95.382065   83.653687   52.292080
H   97.520226   48.899734   11.117943
H   50.583149   27.804483   51.148529
H   26.169830   88.022552   96.579697
H   69.386887   82.602325   86.391647
H   79.672005   20.110710   48.297672
H    6.239090   41.952312   77.055649
H   93.765091    3.203364   72.169312
H   80.142639   39.605370   27.629120
H    2.492894   75.174576   83.832214
H   52.370823   17.604630   60.286507
H   73.971100   69.632225   78.505661
H   53.297073   98.262932   44.015957
H   43.265484   11.961609   98.588417
H   71.539429   40.819233   45.170734
H   26.412851   51.831184   24.525850
H   38.037918   90.795898   41.349350
H   30.946924   95.453667   83.426453
H   68.733955   28.575039   12.426966
H   83.069969   46.420280   89.327904
H   77.060249   17.135996   87.538177
H   78.528610   99.542374   76.562752
H   55.013130   49.134434   38.678509
H   34.385597   38.838356   87.804436
H   38.840897   17.695675   24.549023
H   55.850735   20.978378   31.493591
H   34.316334   85.914574   28.474617
H   92.603752   25.535519    7.529147
H   31.919178   21.351248   58.737190
H   15.531672   59.894272   27.786028
H   71.550316   31.974209   12.797629
H    6.620905   34.158539   95.335533
H   29.806950   82.319328   75.703979
H   67.983688   28.372669   99.401360
H    9.768631   89.067734   11.223948
H   95.325943   60.392029   28.826271
H   88.547569   55.017143   48.806145
H   21.885790    6.644799    8.403391
H    4.173851   73.472710   33.743557
H   66.680710   60.712574   79.679092
