100
TIME:    0.021, STEP:    21
H   15.902434   20.095398   99.126785
H    0.686057    5.883313   79.325195
H   80.125244   75.414680   23.093292
H   81.480133   31.785799   39.012314
H   94.982956   74.440765   65.135933
H   27.690693    1.190796   80.825432
H   51.868931   62.757038   92.094711
H   18.235739   90.419006    6.265282
H   53.111778   84.274261   98.764519
H   74.266716   16.688953    8.510851
H   98.301666   67.087494   37.726730
H   55.040577   24.743095   91.434639
H   41.926346   60.436859   23.041920
H   54.042301    5.012519   58.839256
H   80.758537   68.145279   49.763859
H    0.677001    9.902081   31.297306
H   22.377455   83.385872   75.266701
H    1.593607   93.679276   98.818161
H   45.591301   79.234879   64.467239
H   92.080940    5.092146   17.620676
H   63.030380   54.127472   56.670998
H   64.361427   44.127655   17.467310
H   85.463646   94.451424   31.750423
H   17.090443   36.933628    5.514601
H   28.831465   84.507103   36.713272
H   46.556583   26.989826   87.201561
H   60.268841   41.604549    0.383115
H   30.768448   57.419384   67.470566
H   11.627637   50.997097   56.179443
H    1.799352   90.319901   85.058311
H   16.927828   23.925379    7.750238
H   67.083313   51.929764   97.320030
H   71.837952   66.945793   99.688797
H   78.989433   71.798187   70.866768
H   80.249840   57.332748   26.007492
H   74.381004   86.135674   20.572073
H   81.814934    3.764234   10.118647
H   63.120155   58.569889   23.923601
H   49.777233   80.059700   40.114235
H   61.214573   10.216923   39.686295
H   33.806377   56.899639   42.832424
H   29.733810   12.798920    3.787060
H   11.422734   63.625866    2.990489
H   78.018707   13.123834   82.784561
H   54.833145   31.063385   57.904182
H   77.683235   63.598766   83.400642
H   36.301807   26.873257   27.802679
H   56.240536   95.597931   69.877304
H   65.640800   30.709873   43.636940
H   26.330221   31.069027   82.196060
H   43.536251   67.617592   53.650059
H    6.154103   61.791183   72.684128
H    9.315062   22.130493    1.649783
H   76.197800    6.859740   32.742329
H   39.088043   60.346622    0.584386
H   93.592514   12.510410   91.911911
H   97.583839   88.940849   57.984734
H   24.496489   74.903267   13.014111
H   91.933678   39.656387    9.870887
H   57.638374   29.401869   63.000549
H   61.025497   77.593613   12.759004
H   98.165802   27.749893   94.403702
H   75.658104    5.721188   32.117401
H   44.481544   41.908714   26.570845
H   33.154785   59.167889   97.516594
H    0.055453   41.229206   47.427547
H   85.883476   49.087704   68.076218
H   78.915092   18.738174   67.206520
H   57.950485   48.277397   58.916660
H   30.812138   49.200539    1.686606
H   21.366167   93.975349   61.895542
H   72.234764   50.828575   58.160076
H    5.622169   17.268307   61.211254
H   29.728737   48.051426    1.960534
H   63.182545   28.673578    2.989575
H   26.154150    8.918062   94.517014
H   68.862457   24.724041   91.403137
H   32.966949   49.346806   15.599749
H   62.561150   53.437977   17.922611
H   98.495560    7.810081   19.111872
H   11.293158   29.497992   81.243851
H   42.900013   44.364700   85.024475
H   19.124641    7.607858   31.899904
H   51.615112   13.958591   61.512093
H   51.308846   47.572495   45.716499
H   50.816837    9.819045   43.243671
H   68.557259    1.826053   24.544567
H   56.293228    3.612810   95.519585
H   56.119087   93.003334   28.029270
H   64.477974    8.423103   24.962599
H   24.881990   74.564529   33.905224
H   79.840416   97.086159   33.925262
H   86.631645   28.260626   20.539251
H   49.258057   14.505991   28.234982
H   56.228596   47.849125   16.570091
H   95.656067   94.902397   66.364220
H   60.935417   68.885536   35.981133
H    6.942544   16.416473   55.699089
H    7.711565   36.940815   43.292446
H   40.545696   78.163033   95.663193
