100
TIME:    1.166, STEP:  1166
H   38.470131   15.093075   98.078506
H   68.835823   67.965263   51.551144
H   99.797943   57.790630    9.649117
H   81.672318   84.610313   76.251701
H   84.727295   66.217567   34.089409
H    9.935471   99.944878   94.218254
H   91.860634   40.071918   81.635490
H   28.240997   89.475998    1.135075
H   24.965492   74.187210   26.691149
H   42.975594   33.125389   53.350975
H   91.796555   13.158875   27.434778
H   11.336086   82.136360    9.932146
H   69.091919   91.162621    9.238376
H   97.348503    1.482262   45.973804
H   94.683174   65.872589   94.723251
H   54.642120    9.749180   36.252426
H   30.321941   59.106430   79.517006
H   26.061127   37.998199   59.123337
H   63.420776   27.268297   24.792208
H   61.101883   81.053085   95.719383
H   95.084549   40.138702   25.597366
H   74.151482   45.638924   19.972134
H   70.176247   85.139214   98.988541
H   10.707535   50.666080   20.476776
H   87.881584   93.701302   45.165405
H   41.312565   92.866531   79.883347
H   61.534294   94.007401   23.104193
H   34.157478   10.864425    5.313942
H   36.524643   54.880497    2.055613
H   45.702465   61.981430   76.082390
H   61.968876   26.605330   17.144814
H   39.379032   20.297951   91.321632
H   52.489918   83.172417    2.839443
H   27.368217   66.865791   22.629320
H   51.789070   70.779457   95.730743
H   73.933929   76.079544   16.632292
H   91.633690   61.834816    0.341676
H   15.799093   37.613049    4.723658
H   98.300461   55.617332   30.371300
H   53.368698    3.025738   29.772192
H   55.557083   96.191048   69.814987
H   26.827751   64.190620   57.580738
H   21.284277   70.492096   85.694496
H    4.902833   32.311775   94.739510
H   55.512917   85.886307   55.887413
H   63.044476   85.156441   87.906410
H   48.391956   88.639603   37.586617
H   56.301685    7.388483   40.723385
H   99.115837   35.880936   97.960922
H   50.344540   48.496662    2.114244
H   43.455662   57.073875   65.710983
H   61.798210   55.543583   97.515182
H   33.066696   28.769592   35.150055
H   49.689098   88.180489   83.269363
H   47.935272   60.723606   10.300428
H   95.025162   11.306536   52.933411
H   70.169922   55.902596   66.883736
H   39.235535   66.773369   83.521561
H   82.236732   88.034454   21.968536
H   82.074493   17.410078   30.445763
H   33.253368   24.347557   23.485504
H   57.527527   17.092392   42.597649
H   53.322731   27.641396   53.566017
H   23.105993   48.137238   95.481911
H   78.603600   67.718620    4.148126
H   29.715950   84.307808   15.128399
H   94.017807   88.674408   23.357178
H   99.822014   84.221542   21.944143
H   15.014565   66.005005   87.102852
H   54.005531    6.788879   99.277863
H   85.006020   16.066282   48.163090
H   77.824600   12.828285   41.990829
H   30.966934   60.629498   31.850712
H    4.527362   75.593658   33.909752
H   18.389832   30.302778   89.788261
H   53.225948   82.302757   17.472973
H   72.820885   25.485666   11.666008
H   86.761124   74.479774   78.834396
H   17.441393   50.086765   30.689774
H   42.342758   45.451782   20.469116
H   33.699657   41.344463   49.677425
H   28.808739   51.842422   89.276932
H   91.573540   26.718065   40.955540
H   30.380194   11.937722   56.928810
H   95.554382   75.950775   34.721748
H   24.455227   51.885067   22.754005
H   45.029228   18.575233   79.142426
H   74.725464   11.941786   83.621620
H   79.880074   29.250700   18.660278
H   63.247818   61.304901   65.897133
H   71.740059   36.392498   58.085522
H   64.559151   83.200645   55.738197
H   60.096642   62.566025    9.119602
H   59.926994   83.959587    5.436508
H   36.433598   45.286919   42.879326
H   90.228378   49.686638    7.223499
H   70.050797   34.594646   70.131317
H   11.146304   26.165466   37.380417
H   53.166435   41.876461   47.380306
H   11.653976   48.754284   85.383247
