100
TIME:    3.649, STEP:  3649
H   70.555328   87.389496   95.805252
H   99.765938    2.586924    8.177679
H   42.477737   36.427193   80.508171
H   82.089081   82.310905   40.149082
H   62.487289   65.240944   66.765259
H   71.438850   97.254860   40.118759
H   61.724583    7.734776   75.809486
H   33.082092    4.287521   73.155495
H   63.928551   35.457001   70.396507
H   75.123421   68.777596   50.582253
H   60.833939   13.067801   88.259270
H   16.567558    6.596193   33.188698
H   11.149987   40.937912   62.447197
H   74.403938   93.828621   34.930805
H   24.886890   44.083694   75.369270
H   54.806320   92.574089   30.142836
H   30.676369   23.324062    5.571218
H   79.117271   17.249992   73.039246
H    2.103087   31.433458   55.604382
H   94.209740   28.325743   64.773521
H   47.739883   92.947449   58.200623
H   12.213531   48.928085    8.532181
H   37.024620   64.945137   27.948799
H   80.009850   80.445709   36.067066
H   99.075714   96.774628   63.488503
H   29.925623   18.881975   47.149712
H   47.421841   90.792252   72.373756
H   24.650129   26.762680   87.387962
H   90.514435   80.157944   84.682503
H   40.911499    0.526608   73.473724
H   59.668247   49.268002   20.681679
H   96.157417   51.691734   61.457848
H   27.387743    1.504582   26.527693
H   32.281082   39.313606   18.024460
H   90.066284   83.083611   46.926178
H   89.825783   71.134247    8.091119
H   29.785915   70.901352   95.992363
H   13.173110   92.170555   79.940941
H   91.046539    1.913290   90.697334
H   19.498764   70.576813   25.129618
H   85.868805   81.389313   28.314558
H    3.669809   75.628342   74.234497
H   42.671810   85.381912   65.043541
H   46.345352   73.926758   37.513908
H   40.131886   87.920685   68.365540
H   31.010532   32.515888   97.984505
H   70.242477   23.283104   60.492371
H   56.434292   32.953476   94.357399
H   71.691940   30.239372   98.912903
H    2.407901   86.278343   28.448612
H   43.266224   17.356125   91.891296
H   82.467621   25.138977   34.512066
H   84.567284   43.166870   90.941078
H   92.192131   47.671036   92.837494
H   50.254684   78.375183   31.382811
H   98.131943    8.695959   68.406235
H   27.582720   84.256203    3.037639
H   54.343987   32.284958   19.565495
H   78.065269   92.947357   31.347076
H   18.223068    8.261572   59.824348
H   89.882057    8.877593   29.891140
H   69.404472   93.977707   30.248627
H   21.790503   58.282036   83.247581
H   93.609550   61.644157   28.069820
H   77.158546   69.405312   35.384983
H   77.181374   60.870216   61.941162
H   94.801987   74.516388   43.236553
H   28.304527   26.227842   40.645901
H   38.768280   87.592468   31.373631
H    4.315565   31.676271   94.049377
H    6.159466   47.122124   18.375904
H   73.089706   30.422073   23.784039
H   69.069824   37.811375   68.190178
H   49.884502   18.463066   86.343254
H   38.104450   33.840717   78.016762
H   11.920405   41.439537   50.397480
H   98.260139   10.275173   55.583698
H    3.416987   12.120939   15.959667
H   36.495247   42.800465   58.397057
H   20.571632   10.220875    6.556636
H   82.283340   67.032242   98.081482
H   15.112624   68.058304   81.650146
H   48.671223   68.165863   77.449158
H    1.196039   24.411961   30.137138
H   74.653137   20.636967   94.022888
H   67.312988   43.088638   95.180710
H   10.863195   38.040901   97.541611
H   14.693373   13.146416   57.794449
H   31.411865   91.002113   98.346687
H   43.718128   59.147736   54.658775
H   73.354706   70.465828   10.522012
H   48.283859   69.929253    3.056065
H   19.362072   37.005455    1.187227
H   99.916786   34.571251   72.850990
H   93.500328   22.874210   99.938011
H   95.313995   51.635933   78.973244
H   72.961975   77.089302   27.332308
H   20.260786   47.306732   97.648430
H   34.883354   52.579700   39.395195
H   65.862938   84.993996   46.220390
