100
TIME:    0.691, STEP:   691
H   70.592934   58.653084   98.513382
H   82.048790   42.210323   21.588224
H   91.636780   23.617111   15.226395
H   81.592590    4.180094    2.286466
H   88.981827   28.144218   46.968971
H   17.301174    0.461583   47.177929
H   16.755592    7.996456   44.489872
H   65.575058   48.381641   44.749153
H   36.641899   19.856689   56.592140
H   55.956627   26.306606   34.749176
H   35.979889   94.046570   73.188210
H   29.466770   58.326927   43.742531
H   99.308517   19.901123   56.448479
H   20.867405    2.946755    9.824780
H   88.906578    8.301475   17.556219
H   73.740402   51.297909   75.681137
H   68.511177   27.693924   36.268639
H   15.910417   61.097336   75.590622
H   56.024269    7.340144   99.768600
H   73.944649   91.044281   63.329445
H   23.271622   87.425995   38.488701
H   28.605518   45.011978   60.419178
H   76.518181   89.002357   12.579243
H   54.840149   44.969212   55.756050
H    4.870373   31.373013   41.661034
H   43.490566    7.020540   24.406092
H    2.492658   13.752498   13.678267
H   74.235802   88.692734   89.614426
H   26.196350   11.785096   24.507992
H   27.488878   73.737564   38.320705
H   43.283726   84.008232   54.731834
H    9.387321   33.420319   35.294731
H   19.030575   17.925379   60.047691
H    7.298322   10.396632   42.639992
H   63.595940    6.685845   66.804276
H   32.635254   38.767223   18.266699
H   46.074657   79.229836   62.913403
H   35.430107   46.306934   71.202446
H   19.655067   65.757179   75.898193
H   98.109276   47.494465   92.400444
H   88.019592   79.890465   58.622448
H   69.518028   42.870880   35.264378
H   17.192823   67.643661   51.384155
H   35.233826   24.351671   48.294807
H   96.716621    4.628808   15.238173
H   69.126259   76.194145   86.028053
H   43.376392   63.018047   33.527779
H   56.276318    2.497876   11.333053
H   85.228813   75.220078   16.909334
H   40.382267   41.266857   35.335175
H   43.491901    2.931602   60.702671
H   38.713570   99.618912   28.699005
H   23.213144   26.015381   62.739281
H   60.687824   95.928520   62.308369
H   85.749237   19.081217    6.269676
H   94.430832   11.805737   69.103531
H   40.057678   69.608421   21.707420
H   74.605408   11.630714   95.756058
H   44.774071   67.964951   58.435970
H   13.420510   80.900558   43.955894
H    3.289093   46.435608   60.518776
H   74.386200   21.513626   64.091354
H   21.102695   60.032616   86.152687
H   90.488960   45.553352    8.378325
H   59.750931    5.654600   59.913536
H   58.896095    7.921408   87.043175
H   32.128899   72.250610    0.423046
H   32.633812   57.056320   99.236397
H   91.340996    0.135480   16.893421
H   44.383911   82.899071    0.277695
H    0.088963   48.387508   53.859959
H   16.991228   28.592705    7.212944
H   61.937378   84.126747   44.030849
H   14.981587    5.651233   62.140419
H   95.488327   29.626909   53.780567
H   41.995289   51.860031   49.433521
H   29.692947   66.654167    3.261153
H   64.444763    5.537508   52.602581
H   94.673042   51.478367   25.393353
H   65.637589   71.322227   61.390900
H   24.404194   36.430370   21.287987
H   93.169212   48.740311   28.997246
H   61.516697   18.790648   95.714294
H   97.703522   71.291359    0.314887
H   18.683466    5.660571   80.767815
H   35.388721   34.435688   89.768288
H   13.305059   53.111595   56.492657
H   67.078903   49.970787   88.557457
H   70.022896   55.698189   22.546978
H    5.242504   80.852051   48.915249
H   52.301121   10.744215   48.054394
H   29.413958   47.475624   46.689163
H   29.619259   48.334724   72.372398
H   14.015057   55.147972   73.408302
H   44.645496   87.833832   31.963959
H   50.995361   68.444267   31.758049
H    7.754316    7.335490   97.448746
H    9.402272   22.121124   44.979866
H   75.794456   39.828922   87.169899
H   82.154892   60.956165   31.133127
