100
TIME:    6.560, STEP:  6560
H   73.696365   20.437120   93.140152
H   19.304375   60.342266   91.734291
H   92.527649   45.856300   46.338993
H   82.577682   62.378448   80.587402
H   36.413727   98.570358   87.837311
H   26.291271   94.101158   28.404697
H    9.161271    4.299346    3.453646
H    4.283234   56.124416    5.875772
H   92.370552   55.576157   87.158272
H   95.582497   10.576155   64.568275
H   90.059814   30.198202    7.857456
H    5.462318   52.509464   25.980755
H   25.459579   64.894402   73.186943
H   30.268452   84.856117   56.459972
H   60.283760   84.061302   35.432064
H   37.761108   37.967506   88.503418
H   96.590828   15.864524   70.571022
H   41.349812   75.629517   72.120644
H   47.438961   53.554939    8.969333
H   15.780617   66.500526   62.967918
H   74.997025    3.147904   79.192284
H   91.293930   52.792480   60.633682
H   98.156746   41.270164   44.661758
H    9.539013   15.304903   19.870493
H   94.961739   65.920212   84.986977
H   16.642141   32.729477   73.543587
H   96.402504   69.787308   30.128019
H   79.027634   62.638329   83.611923
H   53.811882   44.266277   47.076935
H   52.532337   28.480034    4.890141
H   74.234016   10.303878   90.372688
H   79.959717   71.263580   91.972023
H   32.434330   88.521873   88.773560
H   55.277626   72.537888   95.389679
H   17.696045   62.986000   24.166529
H   42.886959   99.235695   98.801765
H    8.988709   64.294067   25.367529
H   92.856270   38.902508   85.362556
H   68.174438   38.484245    8.599806
H   45.314533   98.057617   54.162357
H   86.922440   81.272102   96.896461
H   47.372955   67.328186   14.860028
H   67.742645    2.839370   75.309166
H   60.464123   22.752096   22.138006
H   87.624229   73.066513   17.467192
H   93.447655   88.038803    9.811941
H   92.984665   81.592789   88.434288
H   56.589756   62.935852   74.473557
H   56.782898   89.151039   82.793472
H   63.467724   30.580473   24.856371
H   43.051151   36.318207   22.579094
H   23.940266   55.021034   43.413124
H   44.947132   60.045837   21.873693
H   24.778023    0.167472   21.290737
H   18.478012   33.491753   56.145756
H    1.766231    5.633240   69.308914
H   12.128196    0.260153   79.897987
H   37.584137   57.376564   44.585556
H    7.650899   15.946395    7.872015
H   26.126740   32.011623   77.028587
H   73.510368   73.500137    2.927525
H   66.090706   66.882523   98.533447
H   19.418436   59.640541   83.631561
H   93.502914   77.498199   49.037510
H   92.700043   36.907795    6.472972
H   98.356445   16.155876   34.062241
H   61.247482   75.157074   83.778580
H   27.221840   92.710182   79.808533
H   83.851723   78.426575   48.801739
H   63.286118   78.091728   87.919647
H   13.722481   49.058975   83.457771
H   33.065380   33.811493   36.914207
H   79.266708   93.822845   93.548401
H   85.797905   34.237194   13.380796
H   78.454216   37.993832   98.690079
H   80.740883   28.006840   54.523781
H   62.570889   58.016949    7.084181
H   40.181057   21.777552   76.724648
H   76.088036   34.249935   90.870689
H   77.816635   51.665627   55.771294
H   39.241753   97.147873   72.064972
H   33.554344   87.013382   38.194927
H   32.809860   16.824377   54.685364
H    1.467650   73.512474   64.261406
H   32.912224   38.553696   11.833883
H    0.309343   50.014977   97.329376
H    5.282327   26.387352   36.349556
H   61.531853   80.136475   27.560837
H   91.820908   28.921499   74.538460
H   86.346634   39.380367   58.719177
H   92.484856   27.653366   71.996994
H   63.672466   88.854324   58.517235
H    5.962186   24.351604   26.299448
H   81.265388   11.160516   69.129730
H   43.174355   62.125801   66.828033
H   35.750717   36.683746   28.616592
H   41.900108   44.144531   59.917786
H   25.615007   11.048387   47.188789
H   96.209953   65.129875   95.567741
H   46.677227   10.295101   65.795799
