100
TIME:    4.342, STEP:  4342
H   23.690319   23.837708   95.170792
H   80.560249   40.150818   51.883545
H   54.389732   86.285210   72.376503
H   82.205399   53.760185    2.162444
H   56.280151   20.787951   47.974655
H   60.693691   96.504082    8.748569
H   25.406528   54.531292   30.003061
H   78.613655   64.238983    9.525293
H   46.893288   68.827774   26.773157
H   56.184776   78.728050   77.718628
H   96.372772   40.952198   21.506409
H   90.117851   41.332542   83.861031
H   66.995132   99.020180   93.579102
H   40.090202   91.692604   87.667953
H   33.316872   82.182617   42.056614
H   26.942451   31.961967   72.617126
H   74.949287   69.159134   68.657738
H   93.921349   83.549095   49.011044
H   12.896484   60.507607   92.116364
H   75.535454   13.608904   11.956125
H    6.616272   23.957378   39.394157
H   78.652115   49.848053   49.516861
H   27.772072   59.309013    8.119792
H   15.622688   88.757141   84.598373
H   74.289459   41.817642   68.606483
H   26.753035   98.293365   82.116188
H   87.663445   61.987377   86.120399
H   66.175507   59.109589   10.293765
H    5.583276   43.031948   51.923195
H   67.484818   83.374992   28.564747
H   86.940315   11.411426   65.853722
H   39.913647   32.546890   97.303383
H   76.202614   50.800682   88.958603
H   61.561432   75.804382   88.830193
H   72.840683   30.698326   89.126236
H   50.080097   25.513203    5.777425
H   96.253586   45.522934   50.597889
H   84.529060   79.491920   28.844479
H   61.797512   86.813469   23.540030
H   54.224968    5.699340   79.654358
H   38.506332    5.169962   44.641338
H   41.386917    6.728472    6.792518
H   48.641026   89.537628   15.101381
H    2.093449   85.537384    5.272870
H   80.018883   60.576103   27.667673
H   22.069927   45.733814    0.798518
H   75.656540   60.970665   67.146416
H   56.471302   40.091156   37.236259
H   91.952377   72.844574   71.271576
H   16.942333   96.820961   79.978859
H   43.213352   50.451607   99.198166
H   16.145632   60.835033   89.017334
H   98.937813   47.185120   50.693386
H   76.140282   36.361778   23.416477
H   95.078064   39.110813   37.277729
H   98.999039    7.966360   44.814880
H   71.514725   64.260124   68.947762
H    2.741536   66.839317    1.714380
H   32.720886   22.229160   78.146004
H   72.490692   61.529812   40.113777
H   33.597839   76.648094   75.858803
H   44.808556   87.527359   98.891144
H   68.839912   10.992549   35.726494
H   41.196968   65.415894    9.252781
H    4.662953   14.055298   99.920189
H   34.609077   26.419014    2.916639
H   39.202103   98.477844   76.693771
H   80.434044   65.860855   73.775307
H   73.307938   37.797897   87.909729
H   18.355646   66.534180   92.590118
H   84.153893   99.969788   10.061829
H   15.949675    7.422406   74.523491
H   23.885191    3.534649   50.421242
H   34.625729   74.610039   45.166771
H   71.515266   34.829418   30.551527
H   28.305017   85.854454    3.768611
H   61.181328   50.211231   67.839363
H   35.975384   66.809090   54.233490
H   69.726021   40.764904   66.130730
H   86.585236   72.480309   46.853996
H   95.839645   74.201645   39.499615
H   67.111610   72.584122   23.702379
H   92.514290   79.734192   43.454113
H   48.872162   83.713203   66.841385
H   40.910416   77.290688   26.844101
H   51.362690   68.545418   43.304947
H   57.147087   87.654144   30.586943
H   25.846659   57.663185   50.588036
H   45.793076   52.416344   92.678841
H   82.447678   30.634026   79.432465
H    1.715118    7.887759   25.156900
H   99.560455   22.041458   16.261576
H   63.784126   57.799896   54.778057
H   66.899460   76.607956   19.577784
H   81.519600   60.800682   15.861648
H   52.552994   24.270287   43.179100
H   17.954929   16.858868   87.476334
H   22.803915   53.207214   86.555946
H    1.870385   55.566952   81.349052
H    8.910139   67.207954   79.461868
