100
TIME:    7.384, STEP:  7384
H   17.972548   44.872536   92.385757
H   96.549271    4.990977   43.690365
H    6.695089    5.138888   36.663883
H   82.715988   28.430363   35.420338
H   29.031969   64.617500   65.494659
H   13.510877   93.208458   10.008049
H   65.973038   59.941952   67.891571
H   39.518456   27.411877   30.219398
H   72.115059   76.351852   35.290165
H   73.076393   22.408297   96.831215
H   13.413330   63.353840   28.485579
H   74.015579   93.812561   67.327888
H   72.896523   15.042133   91.305107
H   89.470024   82.316322   19.165386
H   70.292061   10.457542   95.806671
H    4.628098   65.897339   20.104433
H   30.329842   70.363983   45.583004
H   58.971210   35.533447   43.558739
H   60.269955   88.120682   52.378452
H   93.580734   49.003963   19.069620
H   26.099686   21.116554   56.826504
H   70.291611   53.886353   90.462494
H   87.155159   34.568626   21.085474
H   32.977577   25.162325   58.674637
H   65.490059    0.570969   91.072426
H   12.791134    8.422035   96.015053
H   25.347986   35.532570   46.479519
H    9.501662    1.099870   10.847442
H   71.728752   19.026293    8.126959
H   84.128891    8.085625   70.395470
H    6.661338   84.193054   25.180428
H   31.987423   48.497723   15.690163
H   90.475838   28.233374   63.005989
H   90.092934   97.023262   60.674957
H   97.188148    0.597645   74.301041
H   14.516317   63.775391   96.211678
H   88.020645   34.118286   90.295746
H   58.796318   23.820904   43.509209
H   33.391315   20.531664   28.747551
H   67.702309   20.917715   18.991873
H   30.606966    9.547383   16.308317
H   77.930595   70.559509   56.925091
H   74.833954    7.782318   34.827641
H    7.851149   36.582664    2.704319
H   16.148861   40.556644   87.978584
H   82.810692    3.754722   13.159567
H   99.422165   26.405560   96.342857
H   56.638302   71.422791   25.457592
H   80.871346   20.907452   49.924324
H   80.768311   43.122639   67.244087
H   42.994572   56.766098   31.264061
H   63.991009   78.558762   89.323029
H   62.040455   64.823669   74.018471
H    5.698128   86.726608   57.651627
H   52.870041    5.702909   63.155338
H    2.792522    4.766472   41.258011
H   64.363892   76.484138   58.267311
H   76.227951   79.559547   23.360643
H   72.635063   50.767986   44.615913
H   71.750023   95.346222   53.592064
H   25.489210   35.181625   38.680962
H   36.845345   59.212845   61.253319
H   75.361092    3.411756   27.127411
H   50.086399   81.986847   26.663425
H   25.405678   71.097351   83.208519
H   47.736572   75.192863   82.783554
H   95.135925    3.647530   23.562059
H   70.302330   39.836723   19.200500
H   24.919250   19.219177   97.120239
H   79.989967   19.524347   86.182251
H   87.556541   92.994446   73.575203
H   65.211967    6.421643   97.291023
H   25.540865   53.068714   72.425354
H   67.654716   82.085693   64.421326
H   18.165953   39.187733   61.161533
H    0.216892   80.818504   99.080513
H   37.407917   86.696480   21.697481
H   78.894073   67.899849   22.229830
H   15.603757   31.829586    0.061759
H   37.406235    6.777688   84.783058
H   55.368904    5.673226   21.314484
H   95.386452   92.357010   69.257942
H   84.929710   30.604650   33.158066
H   58.155804   44.024288   89.003075
H   92.790298   87.007652   31.956293
H   81.348801   80.281677   54.550613
H   60.315449   66.475517   75.640938
H   74.784050   14.198492   19.017319
H    8.921788   83.043205   67.799202
H   13.493653    5.476620   88.177155
H   26.206440   72.145241   89.398361
H   24.640123   50.826523   74.219017
H   58.782108   49.076885   90.020638
H   60.900520   61.151573   24.690546
H   28.928192   88.315659   85.763336
H    3.809720    4.146407   86.055580
H   76.495262   91.432495   12.528058
H   24.024492   51.818737   30.648432
H   56.956291   68.688103   26.549801
H   97.860771   89.148727   86.416107
