100
TIME:    1.007, STEP:  1007
H   49.222816   29.674202   98.224075
H   73.258690   59.344509   41.521450
H   97.066101   46.351345   11.516037
H   81.645630   91.160912   84.966423
H   86.151443   53.473015   38.400673
H   12.401043    0.117673   78.472557
H    0.194433   29.335005   69.201485
H   40.738083   75.719742   15.734114
H   28.874016   89.474365   36.699898
H   47.320824   30.842693   47.124268
H    6.586334    6.761398   42.750015
H   17.405094   74.166466   21.249517
H   79.206528    0.782316   25.041563
H    5.221153    1.972457   33.873394
H   92.749535   80.075256    2.365890
H   61.035019   23.657070   49.450668
H   43.105232   48.591507   65.040184
H   22.663307   45.730331   64.635544
H   60.944893   20.597605   16.415934
H   65.390816   84.419159   84.887611
H    4.519786   55.968102   29.912876
H   58.905567   45.429062   33.511250
H   72.299126   86.432350    3.537807
H   25.480347   48.759129   32.286049
H   93.568474    6.311825   43.992363
H   42.041622   97.604797   94.787170
H   75.244675    0.616306   19.948988
H   47.572861    3.442630    0.058399
H   33.067383   40.454624    9.571331
H   39.605556   65.916641   63.442165
H   55.714268   12.346254   29.726208
H   29.339636   24.690491    6.041028
H   41.289608   94.805794   88.515465
H   20.650215   81.437233   29.327307
H   55.741264   82.798592   86.047989
H   60.109741   63.589733   17.179388
H   76.382927   67.657570   87.813057
H   22.370323   40.523212   93.503166
H    5.448512   59.011513   45.611145
H   68.344444   17.911024   17.262369
H   66.422852   90.734642   66.069016
H   41.117760   57.054138   50.110630
H   19.914717   69.538620   74.209114
H   15.055700   29.647188   79.192757
H   69.304817   92.160324   42.280365
H   65.090431   82.134575   87.267250
H   46.713062   80.063171   36.227974
H   56.293194    5.751440   30.885359
H   94.467339   49.048851    4.303443
H   47.009800   46.076580   13.234558
H   43.467793   72.424110   64.034515
H   54.070930   70.297684    7.953309
H   29.768351   27.847656   44.385185
H   53.370777   90.774040   76.252945
H   60.593697   46.784176    8.951187
H   94.826218   11.473637   58.346146
H   60.089752   60.490440   51.761559
H   51.075134   81.788795   87.616898
H   69.695976   81.316452   34.175198
H   92.567581    5.188361   34.968102
H   23.223143   31.741241   35.881905
H   63.170746   18.572342   49.792389
H   42.537292   38.484093   64.473976
H   12.187723   47.272316   99.798027
H   72.293190   80.417076   89.341179
H   39.483620   92.212196    5.727380
H    6.774794   83.176758   15.680241
H   10.805482   75.128342   14.343024
H    7.089839   77.429733   97.074318
H   50.784821   98.791649   99.612671
H   90.054832   26.885080   50.070042
H   90.935501   18.105339   30.349047
H   41.333923   68.494545   35.927853
H    8.026776   85.654892   43.359596
H   10.724021   30.076540   77.735161
H   49.466633   72.112938   28.171677
H   58.384838   39.266472    8.852587
H   79.291016   84.875816   70.054169
H    9.819651   50.552586   28.916866
H   50.140396   54.111916   34.167145
H   30.588123   39.699535   40.174206
H   16.878765   50.804031    2.572393
H   81.512306   24.064466   25.811527
H   19.441908   98.331886   71.451729
H    3.296381   85.895554   50.135063
H   28.115070   46.044117   11.712490
H   34.409981   30.135826   71.560715
H   72.165878   24.671272   85.273827
H   76.580513   38.103523   19.961300
H   77.304916   67.847717   60.212673
H   65.233131   27.807280   54.727734
H   52.794758   71.242165   52.709152
H   49.894691   57.802284   96.818810
H   44.558563   74.315651   94.715736
H   39.182423   59.529617   39.225548
H   77.095642   55.965508   15.436312
H   82.671616   25.469908   79.275467
H   10.562512   24.811676   39.924232
H   60.740868   41.191074   60.698643
H    1.779539   52.838703    0.697110
