100
TIME:    4.242, STEP:  4242
H   30.452633   33.008240   95.262344
H   83.322090   34.731659   45.577850
H   52.670830   79.090691   73.549904
H   82.188614   57.880058    7.643894
H   57.175842   12.772510   50.686142
H   62.244747   96.612419   98.845116
H   30.647541   47.778515   22.182932
H   86.473457   55.587994   18.707134
H   49.351479   78.442337   33.067852
H   58.917625   77.292198   73.803223
H    5.674515   36.928455   31.138901
H   93.934074   36.320030   90.979256
H   73.376358    5.067551    3.515658
H   45.041679   92.000832   80.058395
H   32.100746   91.115112   46.863895
H   30.963524   40.708305   80.917908
H   82.990669   62.544621   59.554344
H   91.785118   88.412071   52.478603
H   11.338943   56.312202   86.847504
H   78.230156   15.732546    5.147694
H   12.550415   33.912975   42.107933
H   69.065018   49.715302   58.032791
H   29.107216   60.122307   10.981006
H   24.913765   87.557800   92.024826
H   77.866119   49.748398   67.867958
H   27.208891    1.249290   91.520180
H   96.286186   66.144241   84.136757
H   74.613617   54.441925    6.988139
H    3.408721   33.959072   56.650368
H   63.650284   85.849968   20.615299
H   83.005074    2.444407   73.765404
H   33.599560   35.309494    6.560844
H   69.159157   58.117271   79.949814
H   57.336273   84.968811   93.043144
H   75.326340   38.257530   83.036453
H   41.387165   17.680866    6.092042
H   86.661911   49.185043   42.718250
H   88.662666   81.321449   21.788052
H   66.018494   88.992424   33.230553
H   63.643456   15.061179   71.786926
H   45.340744    1.738958   42.285381
H   50.374344    2.240195    2.094604
H   47.779667   88.937958    7.878441
H    8.478945   83.861969   95.495239
H   88.693504   64.521362   19.110163
H   23.360058   43.826466    0.392002
H   74.875290   55.532433   66.186638
H   56.465961   39.061188   31.048820
H   89.028793   81.127045   75.260223
H   14.845012   95.299660   86.973488
H   43.220982   60.105843   98.143784
H   11.286089   70.114166   95.581665
H   96.864143   46.605286   56.501644
H   78.456566   37.993706   19.004017
H    3.040061   30.346926   36.427052
H   98.873917    8.071615   48.219116
H   65.174698   67.145561   59.436958
H   10.187642   76.282982    4.290297
H   24.834379   18.003620   85.822701
H   79.090118   53.843197   42.958015
H   27.289572   81.298973   83.656044
H   48.357750   88.458145    3.415854
H   62.051060   17.816521   42.583794
H   34.329750   64.871155   11.968082
H    0.693674   22.042130   90.607750
H   40.752266   31.390327   97.003952
H   47.225174   95.020203   71.865891
H   87.341698   60.141861   68.994728
H   68.324417   44.983261   94.181091
H   16.329660   61.504501   92.800690
H   87.329247    6.773876   11.261551
H   24.195141   10.741366   67.202324
H   30.405653    8.480785   52.985481
H   36.827572   80.937859   51.108543
H   66.693489   34.686749   22.970579
H   25.940668   79.445763   10.497223
H   52.101585   58.878986   66.070869
H   31.277203   73.347481   48.710571
H   64.930183   41.058636   65.015312
H   91.489410   77.926170   55.469109
H   93.883469   73.167099   33.522747
H   59.608414   71.931046   32.064575
H   86.187996   78.064880   33.929577
H   41.992737   75.156075   75.975296
H   45.779495   83.545265   36.538010
H   53.664478   64.872627   36.360672
H   50.468315   94.924957   25.818571
H   24.237238   65.669472   51.627922
H   43.717880   57.984276   93.496712
H   91.288620   34.748558   75.857330
H   97.622681    2.488137   23.045084
H   92.161469   14.521202   14.356134
H   57.373909   54.799255   47.044903
H   57.234005   70.542587   12.835306
H   83.248421   69.757866   13.563865
H   44.293411   28.218880   48.344200
H   25.892170   11.120200   93.227371
H   22.436941   52.355774   88.156593
H    6.634084   55.135891   89.724602
H    2.698940   69.774483   89.094742
