100
TIME:    5.898, STEP:  5898
H   18.464792   81.145561   93.746231
H   37.586006   24.467436   49.993946
H   81.143463   98.230255   54.111958
H   82.466568   89.652008   16.873039
H   42.343201   45.508133    5.786890
H   36.559261   94.818352   62.845943
H   43.855663   59.600094   51.684361
H   56.315125   98.854599   66.660027
H    8.643837   19.224869   28.828440
H   13.665751    1.069996   38.648289
H   51.637436    3.561515   71.623589
H   30.730766   19.326633   73.103081
H   67.703293    4.926247   38.966728
H   63.047096   86.896584    6.079648
H   52.239784   43.194107   67.262543
H   64.378082   95.868263   43.455780
H   49.825081   72.076698   10.306555
H   27.192816    7.841988   95.070839
H   37.130566   25.781366   74.090668
H   33.614494   80.561562   17.895838
H   14.281029   69.053528   97.162529
H   27.827347   51.913666   17.009064
H    6.996016   46.654167   63.601730
H   71.049492    7.385470   69.037521
H   18.638054   18.418541   80.097939
H   19.659910   52.300781   35.796326
H   53.488388   97.303299   16.991255
H   34.885853   31.738396   61.731941
H   39.417503   84.204865   78.370819
H   27.148209   44.864372   52.262466
H   48.179649   50.940128   42.747948
H   38.160465   89.557068   53.256645
H   85.804436   36.956123   29.135374
H   27.306652   33.206139   23.277456
H   34.163864   13.075825   83.875244
H   85.340881   47.385628    0.883073
H   45.493729   88.537231   73.204689
H   20.218170   51.019039   38.646702
H   96.114685   52.908928   72.752357
H    7.668123   60.033115    2.076361
H   32.164566   58.555450   81.300026
H    3.162598   64.732147   81.062248
H   62.043766   98.868500   27.493141
H    2.737446   11.640646   57.410385
H   45.047665   99.188522   60.818218
H    1.992670   75.412155    7.122466
H   87.812790   45.591690   82.080559
H   56.554401   56.117462   33.512714
H   37.433823   43.977005    9.199595
H   49.576641   20.502684   71.149338
H   43.096607    0.229254   15.601537
H   91.764809   16.448788   86.868996
H   31.214390   56.207336   60.323696
H   40.106773   10.969575   92.079552
H   71.187340   75.478012   50.514271
H    0.941706    6.329599   91.844955
H   70.158318   19.362724   16.936470
H   86.878571   19.894354   61.636581
H   55.438576   87.973686   58.691948
H   69.810562   81.128189   95.857445
H   31.751499    4.288425   54.540531
H   89.586372   73.044327   28.488121
H   74.476494    4.813780   29.026886
H   48.045212   73.892029   67.011963
H   66.426514   89.780685   44.824360
H   39.022392   49.065971   94.919121
H   14.360825   52.270077   51.818008
H   72.950508   54.850437   48.161106
H   50.858807   25.993660   90.320007
H   49.876617   44.794868   89.313629
H   34.745384   94.100754   91.397408
H   87.650040   55.781860   88.445877
H   22.430866   26.567215   10.521675
H    0.373987   76.133873   52.714134
H   46.536816   37.049358   48.506729
H   65.093941   85.579521   99.069519
H    2.454702   15.346251   95.357124
H    9.079097   65.066032   40.164680
H   44.342716   36.194439   83.486626
H   10.281744   87.727333   12.803123
H   26.286814   90.299179   32.498112
H   83.873154   82.720184   93.572929
H   90.936058    5.754373   91.638962
H   55.921783   16.863605   24.726093
H   65.145531   79.962105   76.007477
H   15.546864   25.696709   51.358276
H   61.068810   74.520134    4.782870
H   50.885063   33.109417   34.424683
H   78.083115   65.780998   79.952766
H   44.876492   66.618088   35.056839
H   65.393120   91.906860   58.016766
H   14.691172   39.064926   45.905739
H   63.526642    4.487363   75.105972
H   17.286747   70.997993   24.492006
H   54.619148   21.422451   51.615452
H   81.072189   62.825958   62.809555
H   94.447166    6.154864   97.989655
H   26.892824   78.290787   60.477074
H   27.745789   62.274258   51.018509
H    5.559488   27.282993   29.567509
