100
TIME:    9.021, STEP:  9021
H    7.268964   94.753090   90.887039
H   51.337936   93.698090   46.908382
H   34.833599   22.910553   17.447552
H   82.990753   60.985405   45.691368
H   14.363264   95.830185   21.109154
H   88.127563   91.434975   72.126434
H   80.178841   70.480080   95.907112
H   10.853485   69.032181   79.915764
H   31.874474   18.959915   32.247005
H   28.364122   45.913197   60.929359
H   61.143585   29.220646   70.800331
H   11.533516   75.866783   50.804161
H   68.510406   15.959364   28.625572
H    8.415870   77.270638   43.742710
H   90.175056   64.232643   17.081451
H   38.809006   22.719444   84.218811
H   98.691750   78.639351   94.605568
H   93.973129   55.877052   86.814041
H   85.771317   56.797108   38.622524
H   49.472576   14.242998   30.524195
H   28.957787   58.149055   12.399233
H   27.232401   56.059494   51.056793
H   65.298851   21.260054   74.248779
H   80.877274   44.745575   37.096142
H    6.942323   70.750763    3.160594
H    5.071447   60.164413   41.965847
H   84.188301   67.486588   78.958481
H   71.375153   77.509491   64.961296
H    7.323713   67.547691   30.743748
H   46.897774   67.569656    0.532696
H   71.090355   30.986565   95.666290
H   35.348652    3.273183   64.144920
H    5.783319    8.463409   10.479878
H   59.260956   47.001831   91.711693
H   56.447990   76.653725   73.898483
H   56.817478   91.995438   91.066078
H   45.030075   74.166267   19.284689
H   91.137794   93.863152   59.026924
H   64.294945   84.865746   70.110535
H   13.516432   67.668358   47.788544
H   18.729990   65.712234   54.875332
H   39.973221   76.979019   40.498775
H   88.921906   17.602554   53.068256
H    3.324142   64.066628   62.758709
H   74.150253   75.978981   28.063093
H   61.680138   34.972576   19.810129
H   12.219432   15.430929   12.061575
H   56.738216   88.283371   26.745502
H   28.723167   85.331093   84.622955
H   15.134785   68.040855   52.785175
H   42.882168   98.723732   48.524033
H   43.550014   26.656803   81.863441
H   95.987144   74.315552   78.947678
H   67.782440   60.022583   29.887276
H   22.529613   49.162605   77.069199
H    4.831404    3.044507   85.530655
H   68.142883   29.249535   13.959727
H   54.333435   24.965254   81.194359
H    1.745601   19.938200   18.942965
H   63.724392   21.171909    7.031883
H   28.752558   59.051350   11.048599
H   78.744987   43.975876   87.183388
H   86.496536   91.705833   14.873413
H   62.497089   90.904221   82.219788
H   90.381897   40.351742   35.655506
H   47.174538   93.813072   79.576286
H   63.796799   60.239201    2.595315
H   57.223602   33.458687   97.458572
H    6.506302    1.594810   94.450714
H   13.236815    1.747066   82.710220
H   35.569164   81.610680   53.941994
H   30.410097   52.067772   17.281837
H   18.805847   72.093834   30.451130
H   31.621769   78.480202   67.156441
H   97.022415   41.598171   85.279999
H   38.920258   85.734612   88.930527
H   86.081863   45.010410   50.732933
H   55.796352   60.865578   12.645118
H   94.103935   27.021198   18.330950
H   57.126884   17.602591   43.753960
H   87.416496   22.608744   19.156288
H   18.224983    2.975989   32.307419
H   88.472237   57.981236   89.057259
H   70.778511   84.105568   39.488094
H   13.083466   84.602585   73.268906
H   43.674274   40.410332   68.228806
H   69.647041   47.451973   53.699303
H    1.111450   83.205544    2.044235
H   42.896976   91.897835   54.410652
H   68.762100   38.128395   46.694901
H   93.199150   60.536625   23.969139
H   45.761547   73.944931    5.415346
H   63.716999   98.188683   16.612360
H   19.110270   60.466541   35.069698
H    0.621539   41.683781   23.378607
H   39.019226   39.501953    1.502358
H   46.557549   85.375557   18.382252
H   20.864695   32.819859   97.782372
H   78.973473   75.757057   89.433846
H   99.541412   47.139675   28.718395
