100
TIME:    8.490, STEP:  8490
H   43.177727   43.447533   91.373184
H   66.003311   64.926407   13.426269
H   25.706224   84.708847   23.680336
H   82.901627   82.861931   74.797798
H   19.121408   53.268192   35.505615
H   96.359619   92.010246   19.538803
H    8.009915   34.623566   54.382221
H   52.589035   23.095079   28.670059
H   44.927467   70.013763   65.673325
H   42.867958   38.288822   40.138557
H   10.535904    7.856208   21.950079
H   31.801712   49.250347   88.601936
H    2.370460   48.097603   81.394028
H   34.706688   78.907326    3.331910
H   83.725533   11.664169   42.616219
H   60.158875   69.162498   28.296978
H   41.391792   43.517735   46.266548
H   82.616592   81.715660    5.221971
H   77.498749   34.519512   10.648929
H   63.777393   25.519537   94.371315
H   60.468086   11.010464   26.811415
H   76.324913   55.354584   96.276382
H   72.388466   25.576616   89.440811
H   30.214155   38.393280   76.533371
H   25.932846   12.860268   99.240517
H    7.576107   75.818283   91.935242
H   29.976400   89.557571   68.425339
H   16.180422   52.724201   47.407631
H   95.777367   19.371256   55.844933
H   26.536942   80.711777   58.319122
H   50.191547   83.370247   37.677299
H    1.821187   17.943325   13.302208
H   68.382095   47.313271   62.643204
H   36.825363   95.664948   14.081335
H   69.663033   16.857841   41.591335
H   10.658945   50.404404   92.735176
H   94.100670   93.612068   77.444176
H   13.085463    3.579161   21.557297
H   86.706230   96.435997   21.568153
H   63.529350   17.377718    6.009690
H   55.019974   47.493568   42.365200
H   84.722870   74.896698   13.390748
H   84.352142   14.416782   14.715429
H   37.228642   55.149948   10.842471
H   20.211517   96.923729   82.623222
H   68.533409   24.845985   17.652861
H    8.067956   86.552803    6.962219
H   56.705807   82.814240   93.890663
H   13.202988   29.308380    5.803463
H    3.988898   59.956669   89.911674
H   42.918629   49.988991   42.925262
H   17.742697   75.930450   16.720638
H   84.975960   71.236633    9.786116
H   80.081909   68.685928    6.457110
H   64.808479    2.627363   72.556152
H    4.170044    3.603067    3.607162
H   34.480896   44.571205   63.457100
H   93.873230   75.111397   94.871239
H   59.864285   97.500633   59.709625
H   98.767311   80.358017   22.134789
H   95.255905   83.746704   52.448009
H   97.591209   48.918350   11.208439
H   50.447361   27.940966   51.285675
H   26.032494   88.011658   96.633987
H   69.307510   82.762054   86.205399
H   79.794868   20.210136   48.179417
H    6.399557   41.883175   76.959091
H   93.903244    3.088977   72.073700
H   80.042969   39.749077   27.754562
H    2.452275   75.074112   83.836456
H   52.434345   17.740715   60.310493
H   74.135803   69.698631   78.359055
H   53.427475   98.361870   44.067242
H   43.309505   12.088188   98.707253
H   71.443085   40.816288   45.019093
H   26.365564   51.702995   24.660425
H   37.856277   90.968994   41.313873
H   30.852968   95.584435   83.315979
H   68.638039   28.580914   12.404646
H   83.168053   46.529228   89.500206
H   77.021095   17.115305   87.418640
H   78.378525   99.529404   76.730080
H   54.886620   49.100986   38.488033
H   34.248009   38.667213   87.987114
H   38.938278   17.820782   24.742893
H   55.896770   20.904915   31.354706
H   34.182758   86.059990   28.379250
H   92.571587   25.695560    7.549885
H   31.877666   21.462599   58.753548
H   15.708503   59.976562   27.714533
H   71.468468   31.866222   12.755393
H    6.472925   34.008118   95.297417
H   29.678745   82.259331   75.549316
H   67.790390   28.251331   99.266502
H    9.803215   89.246872   11.177992
H   95.160751   60.471008   28.929573
H   88.706322   54.902367   48.921165
H   21.889650    6.545840    8.443544
H    4.269125   73.464073   33.911083
H   66.556473   60.763889   79.871750
