100
TIME:    2.414, STEP:  2414
H   54.073151    0.645308   96.935928
H   34.120491   35.627831   30.274313
H   21.249289   47.576553   94.999672
H   81.881790   33.194298    7.842942
H   73.549072   66.250259    0.252101
H   90.584969   98.592827   17.812105
H   26.453098   24.342163   79.230797
H   30.150658   97.444275   86.548470
H   94.287209   54.197159   48.134876
H    8.872866   51.044823    2.217697
H   75.710632   63.375050    7.221136
H   63.707336   44.691910   21.097731
H   89.707909   15.657238   85.196892
H   35.554070   97.635231   40.946980
H    9.863029   54.398895   34.733253
H    4.462208    0.591716   32.658951
H   29.985443   41.638680   93.142334
H   52.730804   77.307747   15.855934
H   82.863365   79.624100   90.541901
H   27.481522   54.548672   80.689003
H   21.026443   15.895664   91.723541
H   93.812881   47.288605   13.703842
H   53.513649   74.989311   63.282974
H   94.754730   65.633850   27.789154
H   43.244865   94.722107   54.372681
H   35.590153   55.677746   62.906654
H   53.917542   42.130337   47.869572
H   28.855898   69.117073   46.566525
H   63.660873   68.108955   43.060631
H   93.557442   31.093735   75.294792
H   11.062909   38.522427   18.392475
H   18.178444   85.815910   75.788002
H   40.396580   91.862953   15.269139
H   80.098198   52.494034   70.053146
H   20.766350   76.440186   71.723228
H   82.442154   74.117485   12.341516
H   11.333364   16.130037   98.679199
H   64.213890   14.771008   92.791237
H   43.177933   28.818674   10.377874
H   35.821781   86.192696   27.962313
H   70.269829   39.013355   99.217331
H   14.664642   20.198914   16.213243
H   32.034031   77.975983   75.838524
H   25.208635   53.230476   16.762453
H   47.258610   36.646481   62.683571
H   46.943645    8.960133   92.971840
H   60.590717   56.119415   48.629692
H   56.368336   20.237726   17.942528
H   35.593094   32.521847   48.179573
H   76.514549   67.490273   14.826862
H   43.360447   36.587761   78.869675
H   22.448309   39.737965   15.586704
H   58.955612   36.005920   62.669800
H   20.791393   67.823555   38.338898
H   48.582382   70.130005   20.889601
H   96.586685    9.994951   10.448547
H   49.288006   19.892342   85.578865
H   46.305267   48.915268   51.377029
H   80.663673   40.766644   26.158792
H   99.720688   13.335455   94.950691
H   11.977373   66.307930   26.181553
H   13.235600    5.474024   86.128571
H   37.972820   42.536934   67.948410
H    8.803984   54.926056   61.603794
H   28.137207   68.042847   20.371958
H   53.049355   22.265816   88.919868
H   93.888374   31.821592   83.609818
H   13.614428   55.596619   81.605759
H   77.216362   76.331688    8.829755
H   79.290833   69.561592   96.649933
H   45.377602   31.151541   33.192852
H   74.921204   71.409088   33.363174
H   49.594604   98.901543   99.849113
H   77.066154   96.616318   59.737358
H   78.559471   32.078747   84.395248
H   82.726982   62.288849   33.498295
H   86.130646   17.317076   33.742802
H   45.394436   92.874962   47.757046
H   77.271942   46.428051   44.612228
H   81.138191   77.483276   12.952865
H   58.122265   54.255596   24.267662
H   22.448303   59.992813   84.920021
H   70.536087   47.549866   59.821445
H   16.231083   18.730684   42.937592
H   34.788269   97.886292   13.742110
H   95.730652   97.724007    9.418731
H   28.380331   27.835464   38.652222
H   94.815796   12.023716   70.641914
H    5.779311   59.764397    8.450247
H   52.909031    9.955536   10.513289
H   22.813477    3.781361   84.440994
H   56.901905   77.056938   79.519554
H   40.170444   99.966049    5.668552
H   80.550270   59.660976   89.582222
H   14.854130   33.498314   71.558037
H   93.308060    0.405745   42.762817
H   70.990433    6.215074   98.357933
H   15.728518   36.791443   17.410385
H   93.716209   47.256100   42.840569
H   89.158859   16.697720   65.183014
