200
TIME:    0.607, STEP:   607
H   20.748308   61.257000   21.615049
H   31.235371   38.235943    4.796077
H   10.445679   85.201683   63.424919
H   30.213552   81.263344   34.902737
H   11.313610   93.030807   48.381924
H   77.679443   42.854038   54.686680
H    8.676398   55.043732   56.754932
H   11.112891    4.733920   12.045494
H    2.332674   82.004250   38.766457
H   97.942139   69.758110   81.596519
H   24.985525    2.434025    4.559212
H   32.295395   51.818600   30.228966
H   20.181736   99.187828   46.250145
H   87.057404   54.755329   59.950527
H    1.903076   74.769775   42.075596
H   18.603035   10.845032   46.406040
H    1.472024   24.906923   97.613533
H   27.847551    0.809806   36.986595
H   77.236168   16.415274   47.886410
H   91.223846   74.664696   23.243984
H   62.489456   95.078575    9.026692
H   81.858665   62.842308   56.431953
H   84.015259   59.873070   40.330246
H   16.381697   91.405167   90.435287
H   19.198219   27.464182   32.314808
H   18.357294   78.623665   94.835403
H    6.002903   66.160728   63.837799
H    2.932910   85.268967    1.696955
H   26.525925   45.374580   36.189373
H   76.465096   30.595802   85.930756
H   12.882344   66.781990   16.643511
H   25.252281   72.107895    2.638815
H   18.255737   16.882515   77.661934
H   84.280205   63.978317   44.705070
H   30.376450   74.636276   31.427357
H   21.073109   41.554188   83.684860
H   96.798019   66.507835   88.710121
H   14.761826   54.248672   98.666451
H   39.487511   33.258873   52.589397
H   86.563164   38.179295   49.360443
H   80.613510   88.079659   13.705885
H   31.606432   35.411121   28.948790
H   70.093887   79.351166   63.955822
H   36.463669   81.058617   31.873978
H   41.316570   87.492302   57.607857
H   35.895214    4.287389   46.679260
H   86.890121    8.231908    4.225522
H   81.181061   65.545006   34.454117
H    1.273521   14.825053   61.430931
H   48.984055   19.457697   90.186165
H   69.477875   65.850937   13.324261
H    7.109000   42.014751   71.432091
H   62.074818   83.925095   12.725432
H   16.944517   89.928467   87.137939
H   61.664566   68.222969   78.904205
H    0.600975   63.308788   90.665771
H    4.383113   18.134254   45.717808
H   71.418259   67.110954   98.679359
H   20.437096   81.567032   16.002796
H   34.615128   93.928383   60.209862
H   49.230923    8.216137   31.513918
H   96.532310   17.294279   51.879517
H   81.558067   32.809059   72.503372
H   33.018181   65.675934   11.861576
H   77.247948   81.550247   32.936878
H   24.343189   30.819363   39.460068
H   72.466408   15.420694   93.417488
H   95.286232   92.284325   94.537521
H   29.576729   10.812726   57.334625
H   43.124374   48.026558   50.962994
H   58.304165   82.939705   83.098099
H   21.826044   14.175241   42.195839
H   89.141739   32.007870   87.206612
H   19.821774    0.897779   71.256935
H   83.613815    6.812455   50.356392
H   62.590118    6.119901   60.479282
H   93.876389   43.612736   66.954399
H   12.962079   12.652809   35.417992
H   14.320747   46.044052   26.810093
H   62.745796   88.620155   76.856903
H   58.944431   23.899376   95.685104
H   42.773956   61.990250   76.511681
H    9.567869   17.691982   79.541763
H   12.706219   73.860344    5.812847
H   25.839275    3.204713   47.381641
H   35.006664   72.933578   20.143055
H   52.303745    3.548856    2.612708
H   72.279503    4.885018   25.284628
H   76.918930   72.950493   78.492493
H   21.605938    2.497242   50.827923
H   25.858568   38.060982   79.122093
H   81.499039   91.755447    6.375680
H   64.693871   12.723017   85.277473
H   43.570938   81.248505   79.181824
H   34.424179   51.961823   83.224915
H   54.073738   35.914661   11.806117
H   84.283974    1.585356   14.134913
H   96.805862   34.141323   52.068356
H   28.701942   66.101646   54.181843
H   73.585602    3.890777   27.340006
H   26.240446   90.573547   86.221321
H    4.219127   82.208946   63.840210
H   30.786963   23.757580   35.631226
H   39.510628   68.617081    4.736550
H   24.852242   22.649754   36.986084
H    1.952351    8.804661   26.708427
H   83.043427   34.653763   54.551239
H   62.588692   48.365314    4.550327
H   82.123322   35.457073   16.878910
H   16.156080   22.943411    7.333457
H   52.023121   92.877594    1.054062
H    0.730246   72.574158   94.691544
H   50.719868   84.533440   85.952606
H   61.980980   11.485281   65.490021
H   51.603111   97.250900   13.904558
H   99.061050   95.061424   95.490715
H   17.485806   13.610437   88.458481
H   38.909122   45.060600   26.642540
H   32.799938   71.492348   65.401337
H   80.467789   53.999630   63.033298
H   44.384956   24.198223   75.493881
H    2.453827   18.786068   58.983517
H   41.084358    6.344016   34.916389
H   98.670219   54.112331    1.793731
H   65.934822   99.865326   80.675186
H   61.167889   72.393417   18.445316
H   86.264275   50.903519   56.881226
H   67.401108   90.448357   38.102161
H   96.984100   39.199127   76.526703
H   85.533516   22.409853   72.753983
H   63.423691   72.081757   17.436481
H   67.613266   89.691360   17.981747
H   91.239357    0.450239    0.105175
H   82.925041   22.412498   54.224064
H   22.556194   94.734177   39.552559
H   52.583321    1.155840   78.274826
H   69.500313   87.499718   73.608582
H   94.348732   52.762001   77.399597
H   55.905991   49.466011   71.463287
H   43.646744   91.488655   85.259933
H   68.786781   52.276112   26.765060
H   40.343170   52.161777   54.802254
H   43.207752   63.515961   87.005501
H   40.896355   13.242932   84.206001
H   57.552662   57.595528   61.069294
H   59.387074   68.298553   12.269245
H   53.411217   95.170601   44.654106
H   32.631287   59.757553   66.719383
H   74.996429   49.469418   94.296074
H   21.160833   92.681580   76.262993
H   63.284359   67.542725   48.573608
H   49.236301   96.954727   36.651379
H   93.224876   18.115849   90.581505
H   19.611368    9.566716   66.883362
H   28.165474   63.571198   67.392670
H   74.396851   44.438900   65.352074
H   63.152843   71.889946   85.101364
H   51.263844   30.771523   18.322195
H   95.584854    0.351497   88.994370
H   59.565094   41.969482   92.325012
H   57.560932   69.499451   73.657928
H   26.372753   21.154409   32.364590
H   81.016884   18.568827   37.079453
H   24.745998   30.961014   55.497219
H   55.440201   34.541309   13.430579
H   18.236769   52.761948   60.295631
H   68.580261   91.630989   56.112282
H   23.952812   47.630291   63.188648
H   99.059738   26.976715   35.990337
H   43.221081    7.690176   86.270569
H   72.353821    9.998300   35.945274
H   33.484596   51.815517   58.585110
H   44.763912   61.684502   80.097672
H   66.706757   65.759689   82.754036
H   54.380341   92.275757   81.975098
H   12.238250   49.643242   23.638844
H   31.647560   64.385750    2.260102
H    4.982652    9.550858   69.572983
H   66.216011   12.847872   64.842461
H   68.842606   58.391884   91.562180
H   74.717445   98.340958   33.186337
H   26.630135   30.554043   83.014107
H   48.737282   89.780754   13.337685
H   59.473202   25.899483   90.691826
H   90.268944   72.416451   76.884842
H    6.943435   39.320557   85.790993
H   44.131134   98.238266    7.396992
H   72.789528   82.770088   38.368336
H   95.990059   62.809998   70.737793
H   56.287342   56.276920   70.339798
H   65.352287   18.882198   76.680672
H   44.644329   94.902756   19.949808
H   12.252369   26.255087   66.213547
H   28.691956   78.177864   40.709450
H   72.300262   37.862808   20.615789
H   76.224136   11.283992   24.538294
H   11.900769   95.566566   15.853925
H   18.243637   90.112213   36.616558
H    7.019281   12.638790   61.603539
H    4.179978   22.558863   92.650017
