100
TIME:    1.369, STEP:  1369
H   24.742270   96.477127   97.892654
H   63.189018   78.970802   64.356346
H    3.286796   72.395500    7.265504
H   81.706390   76.246971   65.125359
H   82.909042   82.488914   28.585091
H    6.787527   99.724953   14.322071
H   81.220604   53.780056   97.510353
H   12.285599    7.038497   82.497139
H   19.975365   54.669647   13.912982
H   37.427910   36.040169   61.300797
H   72.913986   21.326939    7.880819
H    3.587610   92.311760   95.482597
H   56.179237   78.880898   89.061516
H   87.297005    0.856415   61.422756
H   97.151909   47.741016   84.966019
H   46.480118   91.993279   19.401840
H   14.001760   72.531143   97.999992
H   30.399223   28.126358   52.085739
H   66.583076   35.784966   35.486446
H   55.633186   76.741318    9.540476
H   83.038239   19.928841   20.087627
H   93.616386   45.906860    2.686583
H   67.465904   83.488228   93.180664
H   91.846565   53.100742    5.399767
H   80.620964   77.600319   46.663063
H   40.381756   86.817047   60.855453
H   44.028580   85.569717   27.132536
H   17.029663   20.339993   12.023898
H   40.938629   73.298431   92.459587
H   53.486568   56.957230   92.220543
H   69.954323   44.809769    1.081710
H   52.196629   14.689775   72.528893
H   66.789383   68.319740   21.127287
H   35.945290   48.262001   14.077715
H   46.743187   55.434273    8.092003
H   91.583679   92.025650   15.933761
H   11.104272   54.400734   16.336981
H    7.409035   33.897556   19.048466
H   89.175125   51.283882   10.914241
H   34.249168   84.022179   45.744518
H   41.684776    3.156975   74.597580
H    8.583275   73.300468   67.118042
H   23.032835   71.709427    0.358203
H   91.939873   35.714417   14.587939
H   37.904984   77.876083   73.259109
H   60.425510   89.028358   88.730354
H   50.535450   99.589386   39.321236
H   56.312527    9.478544   53.283886
H    5.049515   19.069069   89.863968
H   54.602100   51.586452   87.915367
H   43.440174   37.475777   67.851379
H   71.663857   36.705929   84.189590
H   37.277794   29.946655   23.359859
H   44.988590   84.869225   92.227432
H   31.773888   78.519226   12.023045
H   95.279160   11.093193   46.022812
H   83.040176   50.045158   86.190666
H   24.119164   47.602730   78.292923
H   98.247887   96.611526    6.384068
H   68.677658   33.013905   24.671959
H   46.058575   14.907777    7.658449
H   50.322662   15.202732   33.411911
H   67.092468   13.797741   39.639503
H   37.045952   49.241508   89.971397
H   86.660286   51.504932   23.053152
H   17.245277   74.216042   27.131315
H   77.730972   95.693420   33.158459
H   85.799477   95.831100   31.648718
H   25.132622   51.418716   74.371986
H   58.117508   16.999453   98.850403
H   78.560051    2.253603   45.728428
H   61.085796    6.090761   56.854347
H   17.730396   50.588840   26.645306
H    0.059491   62.748032   21.844856
H   28.177265   30.591623    5.177011
H   58.025578   95.312401    3.813910
H   91.251213    7.890899   15.257986
H   96.298431   61.206512   90.044373
H   27.172297   49.492039   32.953621
H   32.387283   34.395134    2.980677
H   37.672245   43.444592   61.810467
H   44.040699   53.168167   72.302444
H    4.418685   30.105993   60.290348
H   44.345425   29.308695   38.386971
H   85.670151   63.253891   15.043133
H   19.782597   59.342381   36.850883
H   58.587135    3.815482   88.822220
H   77.993362   95.689316   81.512199
H   84.092720   17.948572   16.999226
H   45.300690   52.952400   73.154655
H   80.047646   47.353123   62.372509
H   79.579094   98.468391   59.605469
H   73.121773   68.649216   24.824705
H   79.547096   96.272285   19.123699
H   32.924091   27.102844   47.544212
H    6.995410   41.670219   96.738113
H   53.937424   46.244473   58.456711
H   11.891648   27.893890   34.132652
H   43.495934   42.751514   30.376392
H   24.260941   43.539585   65.831612
