100
TIME:    6.986, STEP:  6986
H   44.887283   81.371254   92.750137
H    7.540542   83.425148   18.594513
H   99.853424   76.504951   41.337055
H   82.649185   44.827789   57.237583
H   32.598083   32.716045   76.286377
H   19.683773   93.639641   70.593887
H   86.833786   33.065899   36.767452
H   70.800468   92.980103   66.763435
H   81.898659   14.618091   60.344318
H   83.947060   16.693605   81.247902
H   50.434326   47.339344   66.821739
H   89.204147   73.862762   95.658424
H   98.275597   39.130711   30.857300
H    9.176521   83.543068   88.877449
H   65.457954   46.008873   14.946545
H   20.631886    0.707776   53.142090
H   62.334541   44.039837    9.351495
H   50.459904   54.900238   57.353554
H   54.072460   71.426010   31.411427
H    4.304436   57.454540   91.972008
H   49.717575   60.739830   67.628349
H   32.134964   53.358002   24.355820
H   92.469032   37.805534   32.473801
H   69.958611   20.401094   88.232468
H   79.725166   32.135376   88.133095
H   14.667690   20.153549   33.468956
H   59.669239   52.078453   38.581585
H   43.083176   82.522575   97.691452
H   63.074730   82.916725   26.939589
H   68.867447   17.936638   38.755150
H   90.998146   48.503365   56.668922
H    6.857616   59.492886   52.535042
H   62.442707   57.353203   27.151007
H   73.276802   33.497421   77.442505
H    7.093499   30.731789   50.086250
H   79.918846   32.602692   97.462715
H   49.846909   48.693481   58.934788
H   75.247108   31.105465   15.424628
H   50.192265   29.202387   67.317032
H    5.190689   58.178143   87.678574
H   57.807846   95.891151    6.932342
H   11.472004   68.998749   36.607876
H   71.408783    5.394871    6.080841
H   33.263851   29.902365   63.788704
H   50.671516   56.258381   53.921207
H   87.948448   96.164108   11.542631
H   96.312790    4.759934   92.522942
H   56.614010   67.323517    0.832028
H   69.235481   53.868649   65.801834
H   72.411865   37.064823   95.070564
H   43.021900   95.189957   27.069138
H   44.647427   15.489799   15.449090
H   53.784214   62.515930   97.132301
H   14.913902   93.218643   40.088516
H   84.558945   70.825310   59.769642
H    2.296814    5.185129   54.806870
H   39.133579   87.968178   20.414314
H    5.864026   17.145952   33.613144
H   41.247612   33.948818   75.169167
H   98.015739   64.756531   64.912132
H    0.382390   53.689087   69.711502
H   50.971138   62.917374   79.260223
H   48.340565   30.571369   54.419464
H   22.755386   79.818787   37.470325
H    9.608291    2.883598   46.145008
H   72.186462   94.978691   59.250687
H   27.068964   89.886627    4.345648
H   97.794792   17.074133    0.173797
H    5.082164   47.816925   22.082485
H   71.918175   99.516533   87.022614
H    0.194470   20.074387   78.348579
H   97.972816   19.655155   68.120125
H   51.491165   72.752991   82.627991
H   76.418053    7.275951   88.069580
H   98.994926   38.601688   30.984802
H   90.809761   55.310879   25.860605
H    1.260382   21.144314   14.639139
H   60.195309   93.922646    0.249056
H   96.518303   32.998638   95.622368
H   56.924850   28.459507   19.070915
H   47.578316    1.555396   97.526428
H   65.519447   89.775986    2.556050
H   59.756622   23.948645   95.254135
H   30.775623    9.966070   25.354176
H   12.169233   11.905820   70.538048
H   90.506882   65.663971   26.912399
H   33.733936   95.413353   56.662819
H   68.383110   46.047482   23.143921
H    0.661330    5.203363   71.054329
H   48.682896   21.852459   73.948120
H    9.918659   50.654785   80.993332
H   95.192154   20.893280   66.633842
H   33.269444   37.134335   59.242683
H   22.436810   37.005333   97.854309
H   35.809578   23.966118   76.617401
H   70.936539   19.862288    6.612919
H    8.086798   68.591949   35.418365
H   24.792727   32.127041   38.637718
H   75.916191   66.969444   59.887524
H   73.137596   99.363510   24.756649
