100
TIME:    1.629, STEP:  1629
H    7.160016   72.633743   97.654617
H   55.956657   93.066566   80.757103
H    7.755890   91.101250    4.212888
H   81.750031   65.535301   50.873043
H   80.580246    3.329049   21.535385
H    2.755563   99.443275   40.071087
H   67.592979   71.336449   17.842781
H   91.850105   29.531208   58.625534
H   13.584068   29.671783   97.546669
H   30.322737   39.773384   71.481377
H   48.729416   31.788670   82.835678
H   93.664749    5.344097   76.975212
H   39.641609   63.150612   63.218681
H   74.423164    0.054830   81.207863
H    0.313913   24.518192   72.469070
H   36.026321   69.252800   97.820084
H   93.098312   89.725357   21.671831
H   35.955406   15.482599   43.072067
H   70.633675   46.693016   49.183498
H   48.628944   71.218857   27.242502
H   67.609467   94.044800   13.030819
H   18.547123   46.250031   80.548927
H   63.994530   81.373665   85.742004
H   67.689766   56.219028   86.090530
H   71.321648   56.979050   48.581245
H   39.189587   79.068939   36.486404
H   21.607929   74.762833   32.291988
H   95.092026   32.475918   20.618029
H   46.592010   96.887909   80.168938
H   63.456356   50.522293   12.889552
H   80.181984   68.125504   80.507416
H   68.613251    7.506526   48.459373
H   85.102371   49.296608   44.550140
H   46.930702   24.434486    3.124637
H   40.280479   35.780342   23.923454
H   14.189874   12.449911   15.039594
H   36.041473   44.879250   36.824039
H   96.662697   29.138798   37.395176
H   77.487503   45.733650   85.995010
H    9.760199   59.682529   66.201614
H   23.917290   12.078273   80.723068
H   85.215942   84.968254   79.333313
H   25.272367   73.268570   19.138023
H   75.336784   40.072479   40.008999
H   15.352219   67.616684   95.507645
H   57.071171   93.987465   89.785652
H   53.280811   13.615321   41.542915
H   56.326412   12.155470   69.371223
H   12.648946   97.536339   79.493484
H   60.055134   55.543819   69.729332
H   43.420338   12.373987   70.592773
H   84.299660   12.579683   67.122330
H   42.671318   31.454224    8.259380
H   38.968235   80.628197    3.700534
H   11.074696    1.311344   14.229351
H   95.604477   10.819946   37.171799
H   99.524246   42.543022   10.918957
H    4.758526   23.048725   71.596146
H   18.752998    7.597323   86.424332
H   51.520596   52.999104   17.276939
H   62.459332    2.816979   87.386192
H   41.094757   12.782192   21.646927
H   84.727051   96.067284   21.802589
H   54.900719   50.655846   82.913597
H   96.979195   30.738239   47.267109
H    1.273359   61.290627   42.504543
H   56.870987    4.682633   45.710949
H   67.839577   10.701097   44.078220
H   38.091759   32.736771   58.065720
H   63.384079   30.076616   98.302917
H   70.304131   84.563347   42.610142
H   39.648571   97.461563   75.890129
H    0.777278   37.728886   19.978283
H   94.338646   46.293716    6.392281
H   40.712204   30.961573   24.887440
H   64.172829   11.975824   86.318474
H   14.857248   85.356430   19.857508
H    8.513713   44.204712    4.402471
H   39.635521   48.730320   35.853706
H   19.636429   20.234735   80.581429
H   42.760288   46.134411   77.350319
H   63.549824   54.866165   50.561722
H   20.869480   34.445770   85.054138
H   62.231930   51.557232   14.638802
H   73.010544   46.990005   89.839249
H   13.797947   68.892601   54.905998
H   75.951942   84.911346    1.220019
H   82.178848   74.872971   78.810478
H   89.488228    3.472515   14.872032
H   22.312675   42.254616   82.450005
H   90.687904   61.391361   67.863235
H   98.816460   18.022234   64.558846
H   89.804207   76.440964   44.939194
H    4.676181   12.043099   36.653877
H   28.428368    3.812942   53.518944
H   28.470337   31.402945   83.308853
H   33.299606   61.165432   43.504013
H   12.846276   30.107635   29.972469
H   31.110142   43.872272    8.597980
H   40.407791   36.860661   40.790108
