100
TIME:    1.883, STEP:  1883
H   89.983063   49.340591   97.422073
H   48.891197    6.837644   96.779381
H   12.121916    9.374854    1.231012
H   81.792664   55.070824   36.949474
H   78.305191   23.688267   14.649082
H   98.817024   99.168098   65.226433
H   54.281254   88.486565   37.705910
H   71.886208   51.504673   35.303314
H    7.340263    5.250580   81.559273
H   23.382269   43.420448   81.426506
H   25.102951   42.008976   58.368626
H   83.971542   18.075472   58.894920
H   23.485107   47.783333   37.974098
H   61.846413   99.271919    0.536192
H    3.403714    1.830387   60.259918
H   25.813766   47.035622   76.736099
H   72.677078    6.522804   44.796822
H   41.383369    3.130243   34.266403
H   74.590797   57.349342   62.564465
H   41.786339   65.823837   44.536018
H   52.536743   68.759521    6.136860
H   42.902225   46.585281   58.921883
H   60.603264   79.307899   78.475006
H   44.090431   59.265354   67.227341
H   62.236931   36.834930   50.455162
H   38.024929   71.499634   12.678998
H   99.705193   64.205338   37.332378
H   73.659225   44.331783   29.013834
H   52.114929   19.932493   68.161919
H   73.196068   44.235855   33.081203
H   90.173622   90.903183   60.408215
H   84.651031    0.489268   24.945305
H    2.992991   30.712540   67.432465
H   57.662605    1.157131   92.423920
H   33.966911   16.579964   39.389565
H   36.274578   32.403172   14.166585
H   60.402390   35.577492   56.838322
H   86.163338   24.489857   55.318501
H   66.069595   40.311501   61.651344
H   85.835716   35.902973   86.184891
H    6.559822   20.793825   86.707199
H   62.387878   96.366783   91.266693
H   27.460218   74.791733   37.484482
H   59.116844   44.329971   64.842819
H   93.319374   57.595280   17.243525
H   53.794239   98.832130   90.816597
H   55.962818   27.317888   43.713326
H   56.339977   14.770620   85.087318
H   20.072912   76.498863   69.362320
H   65.381828   59.409863   51.964291
H   43.400959   87.851753   73.270905
H   96.643867   89.010757   50.447353
H   47.940376   32.927002   93.507774
H   33.086811   76.485039   14.908186
H   90.854172   23.578466   16.384657
H   95.922287   10.553005   28.525040
H   15.626501   35.214012   35.076500
H   85.845062   99.061127   65.053909
H   38.784721   18.329817   66.925522
H   34.759991   72.522263   10.052974
H   78.481613   91.004097   67.581200
H   32.079803   10.417511   10.153689
H    1.954835   78.746635    4.376973
H   72.342529   52.037544   76.018669
H    7.060771   10.451554   70.922073
H   85.669685   48.663490   57.523006
H   36.492386   13.463681   57.973766
H   50.294136   25.228310   56.220890
H   50.751839   14.485947   42.134521
H   68.530823   42.852821   97.768066
H   62.238731   67.281456   39.563816
H   18.705435   89.031845   94.485893
H   84.216232   25.165699   13.465115
H   88.749840   30.219225   91.296272
H   52.957581   31.322985   44.142437
H   70.176338   28.254869   69.226494
H   37.919075   63.342209   24.350451
H   20.447094   27.595518   18.430347
H   51.811134   47.986179   38.686867
H    7.179498    6.401278   58.699043
H   47.730915   48.762157   92.531563
H   82.606842   56.524979   29.322584
H   36.940205   38.685822    9.246294
H   79.703926   73.292336   91.438660
H   60.643082   31.101440   65.216721
H    7.951407   78.221489   72.544456
H   92.916023   66.443481   13.332060
H   86.267746   54.537003   76.167763
H   94.759224   89.330116   12.794155
H   99.855392   31.803703   91.530846
H    1.082638   75.107208   73.227249
H   17.610216   37.125011   69.399635
H    6.101322   84.052902   64.589157
H   29.226818   27.450106   53.778801
H   24.036194   81.062103   59.355797
H   49.449677   21.373518   70.189499
H   13.138885   75.742058   28.896378
H   13.778874   32.270294   25.907795
H   19.011074   44.967167   87.320908
H   56.182022   30.336113   16.325863
