100
TIME:    9.625, STEP:  9625
H   66.422516   39.363075   90.334061
H   34.656418   26.428493   84.992241
H   45.215771   66.364967   10.356989
H   83.092133   36.101372   12.583013
H    8.950987   44.243179    4.733284
H   78.763794   90.780617   31.941525
H   48.523075   11.263484   43.140713
H   63.380280   21.287060   24.457947
H   17.027000   60.887451   94.227669
H   11.864626   54.585743   84.578407
H    4.960937   53.523788   12.618544
H   88.481224    6.142096    7.811376
H   29.995453   79.399788   68.600922
H   78.509277   75.408943   89.706474
H   97.511238   10.280373   88.034203
H   14.522373   69.891220   34.082092
H   50.121803   18.590279   49.590073
H    6.892004   26.486244   65.874588
H   95.181168   82.134048   70.444550
H   33.201183    1.416207   71.647362
H   93.115082   98.018318   96.004074
H   85.138474   56.861313   99.620651
H   57.234581   16.350065   56.968201
H   24.756245   51.971161   92.237885
H   85.339706   22.849648    7.619037
H    2.222276   42.358505   85.126701
H   32.104118   42.377392   90.939682
H   20.412386    5.702169   84.923820
H   20.457684   22.347242    2.193810
H   70.058357   52.620804   48.548225
H   94.859215   85.148041   47.879730
H   73.485733   86.583237    8.229576
H   48.330132   64.271561   64.892967
H   84.780914   91.648949   66.265465
H   41.416191   30.922401   10.644996
H    9.322378   39.305042   89.167519
H    2.962137   52.047127   66.877701
H   66.170815   82.812798    1.651662
H   38.798077   71.704857   11.578564
H   56.625324   11.122094   95.309402
H   77.451080   86.439713   69.105309
H   89.071053   79.348373   71.331047
H   94.119904   21.226868   96.697105
H   64.762733   74.204567   21.815037
H   21.755560   52.147465   79.749466
H   53.887749   46.492962   22.263971
H   16.941868   48.281300   17.861719
H   56.775082   94.504379   64.117630
H   46.377007   35.307613   60.530861
H   27.811895   77.238731   10.552464
H   44.875309   40.565315   51.766174
H   72.903961   70.611267   42.214882
H    8.514385   77.817749   43.867867
H   53.795448   50.165741   56.540657
H   74.437935    2.093286   82.202682
H    5.583685    2.409158   64.969070
H    6.436038   11.821218   71.405022
H    9.358840   67.924583   65.637230
H   49.383297   45.461678   72.574776
H   23.868465   67.598709   89.852699
H   66.856842   30.964563   63.961491
H   57.307854   38.353928   59.856331
H   27.504925   50.495560   73.457626
H    3.970914   94.194443   65.823975
H   14.354930   92.109810   91.902641
H   10.070856   63.786339   15.289948
H   15.336655   81.122528   31.757927
H   15.501359   68.001411   26.333267
H   36.611038   58.195221   56.570782
H   25.503723   32.083088   81.429153
H   16.387295   40.512524   46.697975
H   80.671440   32.013084   61.553143
H   79.424210   42.217922   14.963123
H   18.327244   40.253819   31.268183
H   26.116243   42.487545   31.075460
H   53.200928   24.444592   48.288391
H   40.938423   92.731613   61.446892
H   84.172035   21.373695   46.003548
H   23.067640   25.247059   25.072680
H   27.506020   84.699562   91.718971
H   99.241020   28.857401   55.256569
H   63.546883    6.896953   81.775963
H   26.675554   68.082314   46.579891
H   12.334157   35.791702   84.322319
H   83.674225   46.817818   14.718352
H   29.771473   62.598595   10.172482
H    9.986910    3.535991   82.500267
H   10.824623   34.875221   95.784897
H   55.431156   58.267525   49.470711
H   15.359313   13.276619   68.285019
H   17.917990   93.152649   36.724510
H   90.451431   19.371458   16.922037
H    2.434666   16.312040   63.320610
H   75.447670   96.955490   78.922874
H   90.179352   87.580574   37.256935
H   88.907104   15.651711   70.305099
H   98.615471   20.037292   83.645294
H   19.698832   62.703739   85.653709
H   50.200157   78.365273   38.843235
H   37.056946   31.642399   70.533859
