100
TIME:    0.052, STEP:    52
H   13.806058   17.252533   99.098404
H   99.823708    7.564109   81.280670
H   80.657867   77.644981   22.729301
H   81.485336   30.508520   37.312981
H   94.705292   76.925552   64.295372
H   27.209984    1.157056   83.895348
H   50.244335   64.850304   94.518951
H   15.799200   93.101044    3.418928
H   52.349739   81.293747   96.813301
H   73.419533   17.133949    9.724863
H   95.418121   68.334854   34.740776
H   53.857311   26.296974   89.227989
H   39.954552   58.561325   19.960770
H   52.507343    4.916939   61.198456
H   81.135536   65.376205   48.273602
H   99.431061    7.190115   28.723827
H   19.885218   85.435951   78.089226
H    2.256030   92.171753   97.743454
H   46.074020   80.535217   66.100586
H   91.241798    4.442095   19.735559
H   61.190796   51.041237   55.829727
H   67.333900   44.168571   14.827635
H   85.049751   94.199303   30.863388
H   14.210209   37.305424    3.212199
H   27.722818   82.048805   36.942215
H   46.415150   26.065422   84.296257
H   57.595554   40.315800    0.998251
H   28.152870   58.866360   68.495132
H   12.301753   53.809689   54.714020
H    2.987998   89.552658   87.522758
H   18.147280   26.705332    5.297173
H   69.040680   51.073357   94.450203
H   74.021423   64.677650    2.481526
H   80.299232   68.957214   69.560753
H   79.479286   54.989395   27.895088
H   77.076286   88.570793   20.465406
H   84.787880    2.629364   12.561630
H   61.838974   58.002499   26.111094
H   48.383472   79.397942   37.142944
H   58.294842    7.314753   42.125435
H   31.687946   57.963230   43.563007
H   26.947708   14.190256    5.243438
H   11.689696   63.811764    5.229629
H   76.039108   13.643331   85.815689
H   52.144249   29.840267   60.557129
H   77.287315   64.181694   83.522209
H   36.629139   28.545628   28.067572
H   56.242191   95.917221   71.795410
H   66.547112   28.142544   42.400223
H   26.980391   31.540867   80.027725
H   43.534832   64.624779   53.975262
H    7.660562   58.914497   70.649185
H    9.958076   22.310242   99.849342
H   75.480225    6.353903   34.110310
H   36.620049   63.064373    0.847431
H   93.631302   12.477772   90.856598
H   99.549248   88.046364   60.933083
H   22.188021   71.975731   12.215590
H   94.378731   40.966187    7.490993
H   55.591843   31.784719   62.120491
H   62.980972   76.151840   10.342036
H   97.065552   27.461349   93.001190
H   77.760689    3.607159   29.990692
H   46.610382   42.077347   25.729101
H   34.385353   56.691853    0.403466
H   98.151070   39.688099   49.260509
H   83.396324   50.159336   69.572861
H   76.773720   20.511181   68.688499
H   59.495613   46.049934   56.972301
H   31.440193   50.759857    1.621417
H   20.381689   91.866142   61.523746
H   69.678551   49.799751   60.429874
H    3.600855   15.735004   60.416340
H   29.046402   46.089565    0.118097
H   64.677170   28.717688    5.339639
H   26.887098   10.904875   92.430984
H   71.676941   22.037155   91.951843
H   34.423386   47.319904   17.311749
H   64.047142   53.347393   18.268272
H   96.975266    6.121745   16.441187
H   11.899750   29.818819   83.096680
H   45.225864   44.567154   82.432312
H   21.086147    8.125285   34.852509
H   53.747734   16.611301   58.680580
H   49.799194   45.633102   42.711388
H   50.102573   10.958438   45.396160
H   70.627678   99.572090   26.022762
H   56.792267    1.130923   95.197456
H   56.762398   91.277275   27.775612
H   61.737282    7.147578   26.070772
H   26.150637   76.238556   34.559887
H   82.134102   99.417686   34.515831
H   88.620705   29.189524   22.937593
H   52.254417   16.386374   30.325150
H   55.692661   45.072247   17.282345
H   98.216537   93.678215   64.763039
H   58.474754   70.664574   34.198311
H    7.056335   16.680420   55.203125
H    6.234848   37.074444   40.695789
H   42.470898   77.366936   92.677475
