100
TIME:    1.530, STEP:  1530
H   13.854883   81.712570   97.745255
H   58.710518   87.699333   74.512199
H    6.054082   83.978676    5.375121
H   81.733414   69.613976   56.299946
H   81.466980   95.393776   24.219597
H    4.290787   99.550529   30.266474
H   72.781960   64.651955   10.100853
H   99.631310   20.966747   67.715385
H   16.017677   39.190201    3.778317
H   33.028023   38.351891   67.605125
H   57.938156   27.805164   92.372223
H   97.442810    0.381892   84.022255
H   45.938629   69.140221   73.058800
H   79.325127    0.360050   73.674400
H   99.109871   33.360928   77.227524
H   40.006805   77.911674    6.037789
H    1.057778   83.178329   12.658408
H   33.839783   20.296967   46.504196
H   69.091331   42.539566   43.968082
H   51.295944   73.321640   20.502115
H   73.484268    3.900368   15.717834
H    9.054248   46.119362   88.978188
H   65.316322   82.178825   88.574417
H   76.887932   55.031681   93.442719
H   74.862541   64.830574   47.850861
H   39.643528   82.019180   45.765388
H   30.144821   78.877762   30.327429
H    3.445482   27.854931   17.345648
H   44.439377   87.905762   84.848839
H   59.660168   52.972519    5.019564
H   76.287605   59.247589   88.341492
H   62.362309   10.241675   57.624306
H   78.129349   56.540031   35.631439
H   42.747795   33.507271    7.295186
H   42.741280   43.263954   17.895325
H    5.581983    4.672821   15.379861
H   26.546253   48.504738   29.023199
H    0.754858   30.950787   30.409313
H   81.937790   47.847008   95.483215
H   19.084879   68.950539   58.412312
H   30.682602    8.681266   78.390671
H   94.113495   80.525520   74.682114
H   24.419622   72.674896   11.987231
H   81.658730   38.413063   30.329634
H   23.939716   71.523148   87.036087
H   58.348400   92.099190   89.383827
H   52.235462    8.274713   40.696968
H   56.321125   11.136179   63.245663
H    9.755353    5.735493   83.442245
H   57.978786   54.036976   76.654015
H   43.427891   21.932058   69.548935
H   79.488335   21.766142   73.621017
H   40.617630   30.880188   14.009178
H   41.260601   82.243050   99.332108
H   18.956238   92.632767   13.389257
H   95.480606   10.923990   40.541992
H   93.247620   45.399605    1.503084
H   12.130163   32.398346   74.146072
H   10.945358    3.414221   94.024261
H   58.053272   45.389355   20.092735
H   56.214428    7.420783   95.105461
H   44.608459   13.703859   26.126671
H   78.012344    2.818363   28.594337
H   48.102173   50.117310   85.600990
H   93.050072   38.645519   38.047039
H    7.355003   66.212227   36.650890
H   64.813828    1.260046   40.931347
H   74.678154    5.038964   39.345448
H   33.157318   39.850281   64.275093
H   61.378731   25.097235   98.511383
H   73.447731   91.299202   43.797489
H   47.811207    0.747208   68.642174
H    7.232464   42.625561   22.516880
H   96.516960   52.559013   12.276146
H   35.939400   30.820707   17.382301
H   61.832180    5.630807   92.980309
H    5.868659   93.936752   18.106321
H    3.862513   50.678474   98.935043
H   34.889908   49.020359   34.749443
H   24.491562   25.626516   89.110390
H   40.822918   45.110210   71.433220
H   56.121349   54.219620   58.839920
H   14.605737   32.793152   75.624847
H   55.421299   43.085674   23.681374
H   77.830933   53.182793   99.436218
H   16.076717   65.256538   48.031166
H   69.339958   92.109451   96.499298
H   80.585144   82.799194   79.839211
H   87.433784    8.984574   15.681913
H   31.065586   46.328003   78.910622
H   86.636421   56.046032   65.772537
H   91.491463   10.576765   62.672615
H   83.452049   73.474106   37.280350
H   95.107613    6.037976   29.979088
H   30.140278   12.680992   51.243950
H   20.293350   35.312370   88.422302
H   41.157852   55.483990   49.197540
H   12.482783   29.264709   31.556732
H   35.826225   43.445522   16.890530
H   34.259567   39.403790   50.325142
