100
TIME:    0.276, STEP:   276
H   98.658119   96.710793   98.893326
H   93.592751   19.709015   95.410553
H   84.506500   93.760704   20.099174
H   81.522934   21.279150   25.034414
H   92.698944   94.880142   58.221642
H   23.736473    0.913259    6.078310
H   38.505322   79.974815   12.036237
H   98.193237   12.480036   82.852791
H   46.843391   59.757126   82.714180
H   67.297951   20.349403   18.497080
H   74.582184   77.348038   13.164101
H   45.307262   37.525002   73.283165
H   25.706371   45.009079   97.697136
H   41.416035    4.226295   78.244148
H   83.859657   45.369011   37.505291
H   90.426270   87.596321   10.129292
H    1.876520    0.249425   98.484245
H    7.042643   81.278687   89.977829
H   49.562057   89.931213   77.902832
H   85.178322   99.744995   35.017296
H   47.898315   28.740700   49.750870
H   88.812416   44.464226   95.754280
H   82.059029   92.377525   24.453842
H   93.398117   39.991947   86.576675
H   19.711954   64.285622   38.596512
H   45.393177   19.385857   63.303093
H   38.278904   31.003635    5.443106
H    9.253212   69.321930   75.898453
H   17.172684   74.132927   44.125153
H   11.576926   84.008713    5.330160
H   26.958803   46.792732   87.571648
H   83.184235   44.885124   73.713387
H   89.798767   48.288490   22.661215
H   89.763588   48.428894   60.123741
H   73.911415   38.056778   41.534492
H   96.551872    6.166788   19.694654
H    6.271369   94.427589   30.212902
H   52.581406   53.902645   41.917492
H   38.312428   74.616203   15.672980
H   37.197430   86.345070   59.750191
H   16.380573   65.648903   48.842060
H    6.815872   24.244135   15.766936
H   13.618712   65.155029   21.409191
H   61.734909   17.397116    7.717751
H   32.714806   21.002254   79.725403
H   74.426476   68.392632   84.400627
H   38.994373   40.629856   29.981634
H   56.254154   98.224350   85.655273
H   73.095940    9.591518   33.463943
H   31.678389   34.950291   64.359756
H   43.523563   42.997826   56.326984
H   18.545938   38.128120   55.944145
H   14.604378   23.609070   86.840553
H   70.295166    2.698813   43.995075
H   18.786797   82.700684    2.748142
H   93.911575   12.241932   83.231110
H   13.749666   81.582985   82.237282
H    5.507716   50.821922    6.445631
H   12.045074   50.430542   90.294815
H   40.805038   49.002785   55.759483
H   77.110855   65.733871   92.876984
H   89.115356   25.376389   82.866913
H   92.953560   88.332100   14.623466
H   61.992950   43.295853   19.646826
H   43.277199   38.800495   21.264189
H   84.390327   28.552357   62.505138
H   65.424644   57.902744   80.387314
H   61.300575   33.322495   79.396996
H   70.659386   29.954720   42.922741
H   35.977654   62.027191    1.150378
H   13.268042   76.625420   58.837223
H   51.209034   42.365669   76.829659
H   88.995712    4.655659   54.672443
H   24.115982   31.913546   86.805107
H   75.477951   29.036413   22.320728
H   32.183239   25.261198   77.357742
H   92.013855    2.622290   95.916687
H   44.947311   32.673489   29.682468
H   74.782982   52.692852   20.765953
H   85.989914   93.922554   97.143616
H   16.282894   32.137005   96.484863
H   62.032612   46.030045   63.701813
H   35.259411   11.864116   56.187469
H   69.157074   35.779270   38.220619
H   38.891190   31.619919   20.997234
H   44.941441   19.191469   60.949627
H   85.588127   83.285469   36.703915
H   60.398224   83.196877   92.869820
H   61.410835   78.805107   25.942726
H   41.933571   97.930527   34.078442
H   35.317631   88.334747   39.290356
H   98.707832   16.264036   38.783165
H    2.993103   35.901062   40.267143
H   73.904762   29.973654   45.427540
H   51.820103   25.007061   22.428951
H   16.718094   84.832512   53.193214
H   40.694481   83.519554   21.315987
H    7.878571   18.587646   51.619385
H   95.564201   38.040020   21.932850
H   56.382030   71.614494   71.103256
