100
TIME:    1.918, STEP:  1918
H   87.616119   46.130905   97.390030
H   47.917610    8.735304   98.987175
H   12.723532   11.892802    0.820130
H   81.798538   53.628868   35.030872
H   77.991699   26.493671   13.700129
H   98.274422   99.130180   68.692467
H   52.447033   90.849770   40.442955
H   69.135277   54.532513   32.089622
H    6.479897    1.885426   79.356285
H   22.425905   43.922997   82.796898
H   21.847336   43.417286   54.997387
H   82.635864   19.829851   56.403542
H   21.258755   45.665794   34.495514
H   60.113396   99.164040    3.199792
H    3.829475   98.704071   58.577370
H   24.406525   43.974136   73.830826
H   69.863129    8.837410   47.983276
H   42.131317    1.428151   33.053024
H   75.136070   58.817734   64.408356
H   40.843460   65.080429   46.918983
H   50.459793   65.275330    5.186905
H   46.258244   46.631477   55.941574
H   60.135963   79.023247   77.473648
H   40.838554   59.685123   64.628082
H   60.985100   34.059166   50.713379
H   37.864445   70.456619    9.398482
H   96.687233   62.750332   38.026920
H   70.705887   45.965466   30.170736
H   52.875961   23.107866   66.507408
H   74.538155   43.369614   35.863644
H   91.550423   94.041840   57.638859
H   86.860962   99.522209   21.705177
H    5.458401   28.151867   70.585541
H   59.141411   97.949600   90.949387
H   33.096931   13.934190   41.520721
H   39.317638   35.152767   14.046288
H   63.759209   34.295753   59.596195
H   84.716576   23.849255   57.788250
H   64.496262   39.564354   58.296661
H   82.538979   32.626263   88.938492
H    4.168045   21.994787   87.531784
H   59.242279   97.937447   92.911057
H   27.761694   75.001617   40.012444
H   56.881813   44.916634   68.265060
H   90.283257   56.214474   20.238653
H   53.342693   99.499702   90.958656
H   56.332386   29.206049   44.012398
H   56.341846   15.130976   87.252922
H   21.095900   73.599998   67.966293
H   66.115623   59.942585   49.516438
H   43.398289   84.472771   73.639938
H   98.344841   85.763153   48.149570
H   48.666428   33.129944   91.475151
H   32.276379   75.914131   16.452547
H   88.067993   26.646761   16.681593
H   95.966080   10.516222   27.333557
H   17.845255   34.204109   38.405281
H   83.238861   95.755844   64.152420
H   41.544998   19.808756   64.238678
H   32.450459   75.212311    9.057557
H   80.689407   89.376289   64.852165
H   30.837711   10.091669    8.570008
H    4.328907   76.359932    1.975798
H   74.745789   52.227936   75.068581
H    8.450011    7.656101   74.181427
H   83.519569   46.923531   59.592480
H   33.684311   14.673656   59.663525
H   47.876457   27.230091   57.894093
H   52.496338   11.971069   39.939278
H   69.240051   44.613342   97.694366
H   61.127357   64.900093   39.144047
H   15.819526   87.870270   97.048302
H   81.934204   23.434551   12.567631
H   87.979729   28.004354   89.216118
H   54.644936   31.372786   46.795635
H   71.003593   30.498045   66.871300
H   41.096985   60.308495   24.969557
H   22.091457   25.306948   20.363369
H   53.488876   47.883640   39.077263
H    5.463003    4.495092   55.683754
H   48.415844   49.124249   94.623466
H   85.232803   56.753555   26.395815
H   39.154675   39.270081   12.579815
H   82.111458   76.287331   88.241791
H   58.938904   28.912071   61.823853
H    7.145814   79.506966   74.974953
H   95.253593   63.898697   15.001057
H   86.831177   51.734802   75.803535
H   95.485542   87.381340   12.507833
H   96.761063   30.363617   92.782143
H    2.515008   76.997238   73.966385
H   20.199862   39.757381   70.066673
H    8.346901   85.101791   67.296829
H   32.609806   29.573118   56.138535
H   23.430973   77.927185   60.160088
H   52.340530   19.991510   68.381714
H   10.360784   77.750648   26.883514
H   13.907382   32.568298   25.347702
H   17.343880   45.118038   84.388931
H   58.355637   29.437160   12.954819
