100
TIME:    6.942, STEP:  6942
H   47.862869   85.406288   92.790421
H    8.755600   81.041054   15.820174
H   99.096771   73.339363   41.853687
H   82.641800   46.640533   59.649540
H   32.992188   29.189253   77.479431
H   20.366238   93.687309   66.236588
H   89.139999   30.094677   33.326595
H   74.258781   89.173340   70.803169
H   82.980263   18.848526   63.114124
H   85.148842   16.061831   79.525124
H   54.527100   45.568897   71.060204
H   90.883286   71.657257   98.790443
H    1.083294   41.791836   35.229424
H   11.355087   83.678688   85.529243
H   64.923531   49.939171   17.062420
H   22.401157    4.556246   56.794434
H   65.872749   41.129711    5.346001
H   49.518955   57.041290   58.878609
H   53.387310   69.580368   29.093464
H    5.489769   58.388775   88.976280
H   52.328598   65.120209   68.822746
H   27.916641   53.299591   28.102829
H   93.056496   38.163383   33.732651
H   74.046684   19.874727   91.500107
H   81.298897   35.624908   87.808144
H   14.875149   21.450500   37.609734
H   63.463581   53.907646   37.708447
H   46.795609   80.468803   96.237228
H   62.118004   78.924660   29.019377
H   67.180252   19.025627   35.257225
H   89.266640   44.557961   60.150063
H    4.079460   60.708431   56.608345
H   59.343250   60.572502   23.187140
H   71.417732   37.529770   79.296204
H    8.188580   34.063210   47.409096
H   76.093956   29.156326   97.601021
H   45.626907   50.304810   55.467747
H   77.065895   31.910793   12.319800
H   52.049656   30.160959   71.581009
H    9.334991   62.297436   84.216904
H   60.814987   94.381203    5.895805
H   15.180157   68.826202   34.361752
H   71.030121    5.130932    2.902748
H   36.073269   29.163839   59.486794
H   54.488014   57.994251   50.156071
H   88.516441   95.324875   11.363874
H   95.969040    2.366972   92.100639
H   56.611324   66.870331   98.109573
H   67.949104   57.512600   67.556839
H   71.488037   36.395115   98.146858
H   43.024921   99.437820   26.605377
H   42.508724   19.572838   18.337379
H   52.871464   62.260803   99.687599
H   15.932732   93.936356   38.146866
H   88.062241   66.969536   59.395344
H    2.242012    5.231413   56.304733
H   36.344303   89.237770   16.229561
H    9.140309   21.301332   34.746445
H   37.777550   32.089413   78.546913
H    0.919409   61.374493   66.163597
H   97.606865   55.735138   73.142288
H   52.532784   63.326920   81.250885
H   45.353230   33.573891   57.436676
H   19.733978   79.579102   38.665058
H    7.861843    6.397846   42.047535
H   74.889465   97.166069   56.649063
H   30.599283   88.365265    2.221237
H    0.834183   14.557609   98.070343
H    2.889132   50.978485   24.842220
H   71.026573   97.303642   87.115265
H    1.591740   23.068100   78.876289
H    1.593708   21.119282   64.895454
H   54.360001   74.928955   83.755920
H   77.386864   10.060684   90.683960
H   96.873405   38.538830   27.649136
H   89.769783   52.490719   28.821253
H   97.264252   24.952755   13.858820
H   58.128109   96.799538   97.819283
H   94.408134   33.127880   95.131584
H   59.082687   30.856525   22.861565
H   46.717262    1.100091   94.896606
H   62.217751   89.490646    6.237062
H   56.973389   23.212805   91.064011
H   27.748508    6.200850   29.372761
H   14.311628   14.658254   74.803368
H   91.519333   64.047943   23.856918
H   30.795275   98.612511   54.564735
H   67.675468   49.568569   23.600128
H   99.748154    7.653170   71.414192
H   52.573246   23.662853   72.375061
H    8.118000   48.279083   80.064133
H   91.936600   17.584183   65.795280
H   30.448948   35.814053   55.840096
H   18.184414   34.335899   94.887451
H   36.570259   27.907494   75.606293
H   67.302322   21.599669    8.885647
H   11.579268   66.066864   37.948822
H   24.877657   29.949913   39.520927
H   78.012260   66.779442   63.573101
H   70.404381    0.492688   28.995449
