100
TIME:    4.047, STEP:  4047
H   43.639801   50.890778   95.440872
H   88.707680   24.164301   33.281746
H   49.318970   65.061378   75.838036
H   82.155884   65.913811   18.332788
H   58.922440   97.142403   55.973541
H   65.268684   96.823677   79.534355
H   40.866871   34.610600    6.933666
H    1.800079   38.718601   36.611988
H   54.144951   97.190735   45.343128
H   64.246681   74.492287   66.168182
H   23.812943   29.082157   49.921551
H    1.375983   26.545633    4.859575
H   85.819748   16.860058   22.891922
H   54.697060   92.601875   65.219757
H   29.728588    8.533207   56.238094
H   38.803970   57.763664   97.104431
H   98.671364   49.647472   41.802727
H   87.619469   97.894875   59.240345
H    8.301739   48.131165   76.573227
H   83.484825   19.873648   91.871239
H   24.121994   53.326389   47.399796
H   50.370178   49.456436   74.638855
H   31.710747   61.708229   16.560410
H   43.031364   85.219086    6.506973
H   84.840607   65.213257   66.427834
H   28.099169    7.023472    9.845545
H   13.101130   74.249405   80.268654
H   91.067932   45.339981    0.542168
H   99.168457   16.267624   65.868355
H   56.172943   90.676170    5.113842
H   75.331352   84.957756   89.193184
H   21.287092   40.696571   24.612968
H   55.423489   72.384621   62.382675
H   49.097214    2.839407    1.258304
H   80.173370   52.997978   71.161377
H   24.434744    2.398168    6.717458
H   67.958145   56.326157   27.352957
H   96.723198   84.889030    8.027803
H   74.248627   93.241386   52.127724
H   82.010963   33.316467   56.444698
H   58.667847   95.047485   37.691265
H   67.899826   93.489029   92.933258
H   46.100018   87.768600   93.793114
H   20.930517   80.594910   76.428467
H    5.608767   72.215912    2.423019
H   25.875813   40.107136   99.599922
H   73.351852   44.927879   64.315071
H   56.455547   37.052750   18.983315
H   83.327805   97.277863   83.038086
H   10.755237   92.333122    0.612948
H   43.235859   78.931602   96.087738
H    1.809980   88.207962    8.382992
H   92.820488   45.474609   67.827248
H   82.973320   41.175964   10.399718
H   18.565781   13.257349   34.768230
H   98.629929    8.276922   54.857376
H   52.812992   72.772163   40.890892
H   24.707756   94.698128    9.313251
H    9.455694    9.764099    0.792305
H   91.959000   38.854298   48.504280
H   14.988291   90.368187   98.860664
H   55.278679   90.273178   12.239310
H   48.811733   31.123539   55.955528
H   20.939291   63.809181   17.262920
H   92.954414   37.616718   72.448494
H   52.731483   41.084389   85.474030
H   62.870163   88.277802   62.451519
H    0.811646   48.989822   59.672604
H   58.605728   58.994720    6.410864
H   12.378988   51.695885   93.211304
H   93.521187   20.041954   13.601009
H   40.273422   17.213303   52.924892
H   43.119904   18.125751   57.985748
H   41.121166   93.277107   62.695000
H   57.292088   34.408543    8.187732
H   21.330187   66.948814   23.618118
H   34.396088   75.780075   62.622303
H   22.115749   86.097343   37.940880
H   55.579643   41.631413   62.839455
H    1.052570   88.545601   72.268578
H   90.068924   71.149734   21.868502
H   44.976570   70.657547   48.370117
H   73.851723   74.809723   15.356731
H   28.577669   58.469673   93.786423
H   55.274200   95.741692   55.441132
H   58.152966   57.709381   22.819336
H   37.444710    9.103065   16.520247
H   21.098867   81.281731   53.655701
H   39.671249   68.841743   95.091560
H    8.528993   42.771896   68.885818
H   89.642487   91.958168   18.927042
H   77.733444   99.856987   10.640257
H   44.873985   48.948006   31.965250
H   38.385929   58.714455   99.687569
H   86.619621   87.223839    9.083188
H   28.187225   35.919014   58.416145
H   41.370239   99.929848    4.442043
H   21.721342   50.695465   91.277855
H   15.923454   54.295322    6.057472
H   90.586113   74.779213    7.879312
