100
TIME:    6.781, STEP:  6781
H   58.750809    0.170839   92.937820
H   13.201550   72.317436    5.668585
H   96.328110   61.756187   43.744091
H   82.614777   53.273529   68.474487
H   34.434250   16.284391   81.844925
H   22.863438   93.861732   50.291775
H   97.578644   19.222706   20.736185
H   86.913063   75.244049   85.584923
H   86.937950   34.327972   73.247978
H   89.546272   13.749809   73.221321
H   69.502930   39.090672   86.569130
H   97.027405   63.587116   10.250320
H   11.357071   51.528828   51.227226
H   19.326530   84.174934   73.277855
H   62.968025   64.320488   24.804600
H   28.875084   18.638100   70.158691
H   78.819374   30.481297   90.689522
H   46.075939   64.875595   64.459023
H   50.880283   62.826782   20.611828
H    9.827011   61.807224   78.014641
H   61.882568   81.147491   73.193153
H   12.481415   53.085861   41.813477
H   95.206078   39.472786   38.338898
H   89.005318   17.948702    3.456926
H   87.057320   48.393425   86.619118
H   15.634251   26.196163   52.761215
H   77.346245   60.600830   34.513554
H   60.379738   72.953865   90.916092
H   58.617256   64.317329   36.629883
H   61.006657   23.010338   22.458458
H   82.930901   30.121288   72.887871
H   93.913849   65.156540   71.512932
H   48.002056   72.352211    8.682988
H   64.615227   52.284500   86.079056
H   12.195707   46.253181   37.613144
H   62.098339   16.545650   98.107094
H   30.185467   56.200806   42.781528
H   83.721001   34.857563    0.958858
H   58.846020   33.668755   87.183289
H   24.499371   77.369217   71.550339
H   71.818390   88.856163    2.102983
H   28.748337   68.194839   26.142540
H   69.644562    4.165155   91.273125
H   46.353184   26.461508   43.745712
H   68.453316   64.346024   36.379093
H   90.594780   92.254044   10.709787
H   94.711227   93.611282   90.555397
H   56.601559   65.212082   88.147797
H   63.242332   70.846779   73.978561
H   68.107666   33.944592    9.403962
H   43.035976   14.981672   24.908436
H   34.683018   34.513046   28.905952
H   49.531628   61.327271    9.038286
H   19.660721   96.562531   31.042274
H    0.881155   52.859940   58.025753
H    2.041487    5.400769   61.785553
H   26.138086   93.883324    0.916878
H   21.128397   36.506065   38.893295
H   25.080276   25.285679   90.906395
H   11.543564   48.999043   70.742821
H   87.451012   63.221825   85.695847
H   58.246986   64.825485   88.534897
H   34.422298   44.560097   68.476929
H    8.678371   78.702072   43.036694
H    1.471289   19.256664   27.054304
H   84.779999    5.169689   47.129486
H   43.516495   82.798462   94.448196
H   11.955812    5.349458   90.373611
H   94.865303   62.546921   34.940342
H   67.764122   89.206474   87.454285
H    6.704488   34.022369   80.807228
H   14.843417   26.476654   53.096092
H   64.857330   82.891006   87.883118
H   80.931831   20.250317    0.250199
H   89.110344   38.309132   15.443810
H   85.964409   42.171497   39.654099
H   82.642181   38.888187   11.003561
H   50.564037    7.326854   88.928612
H   86.686836   33.600788   93.335762
H   66.978409   39.626900   36.731895
H   43.566589   99.434219   85.273849
H   50.137100   88.446564   19.706322
H   46.789284   20.520300   75.731964
H   16.672020   92.423729   44.077129
H   22.150846   24.729393   90.410561
H   95.223984   58.133530   12.676545
H   20.042452   10.318706   46.887657
H   65.086143   62.452549   25.269432
H   96.407089   16.617212   72.730965
H   66.808151   30.287251   66.619095
H    1.529100   39.586174   76.664108
H   80.024231    5.475661   62.727417
H   20.128498   30.983021   43.389717
H    2.624722   24.568201   84.031448
H   39.353661   42.329346   71.906555
H   54.004395   27.956903   17.201721
H   24.358332   56.827347   47.207993
H   25.188425   21.983562   42.752670
H   85.681969   66.084206   77.057777
H   60.403736    4.624043   44.505604
