100
TIME:    3.520, STEP:  3520
H   79.279205   99.219482   95.923355
H    3.354433   95.593033    0.040604
H   40.260353   27.146519   82.021858
H   82.067429   87.625542   47.220501
H   63.642731   54.901028   70.263077
H   73.438728   97.394615   27.343145
H   68.485649   99.023918   65.721519
H   43.221237   93.127090   84.999260
H   67.099617   47.859787   78.516090
H   78.648796   66.925346   45.530396
H   72.833206    7.877416    0.685642
H   21.491470    0.130291   42.371208
H   19.355541   48.742554   75.269127
H   80.791344   94.226234   25.113491
H   23.317596   55.606613   81.569679
H   59.993011    3.856943   40.850929
H   41.049751   14.792068   93.827835
H   76.361534   23.523232   77.511414
H    0.093959   26.021387   48.808537
H   97.685905   31.065241   55.990593
H   55.394928    5.789595   61.701393
H   99.846176   48.756836   19.517731
H   38.746956   65.994286   31.640011
H   91.995338   78.898560   45.648174
H    3.689373    7.004997   62.535805
H   30.517614   22.725737   59.240509
H   58.546162   96.154129   69.814857
H   35.534641   20.741394   83.124443
H   87.709488   68.453934   90.780556
H   35.964951    3.719558   63.218445
H   54.590801   37.700794   30.887749
H   88.012245   55.255493   73.400032
H   18.301191   10.942574   14.906354
H   26.830162   51.135719   23.458675
H   93.272781   92.834984   39.071342
H   78.607964   61.000713    8.536466
H   17.413147   75.625473   85.827629
H   18.504608   94.530647   70.837166
H   96.491089    4.723650    3.198433
H   31.649105   82.652847   14.980139
H   94.685196   76.962418   25.275373
H   15.263634   69.839325   68.173843
H   41.560658   84.608337   55.726086
H   54.583038   71.765472   24.901213
H   51.321163   93.010925   57.326839
H   32.674801   30.055408   97.460915
H   69.234665   16.267292   59.253273
H   56.427402   31.624956   86.375603
H   67.920517   40.922775    4.058795
H   99.702477   84.315865   37.470699
H   43.276066   29.810581   90.531143
H   76.198318   37.109421   42.981037
H   81.892250   42.418884   98.432747
H   95.180138   49.776222   87.144928
H   60.525711   67.068787   30.285929
H   97.970535    8.831778   72.797699
H   19.405069   87.978416   90.768654
H   63.949699   44.467285   22.888618
H   67.890694   87.496902   41.250965
H   26.735344   98.346008   63.493416
H   81.744759   14.876489   39.948597
H   73.982933   95.178421   36.085869
H   13.032670   67.084648   92.093498
H   84.751823   60.942429   31.572559
H   72.038780   79.707832   23.371584
H   85.106087   67.283211   54.313675
H    5.151962   70.056030   37.008587
H   37.215401   18.849848   34.478954
H   32.338554   96.861588   39.464672
H    1.702098   25.187986   94.321014
H   10.255919   55.899147   19.923546
H   83.726852   34.703308   14.339240
H   77.480728   44.191891   71.497063
H   52.724880   26.626446   94.008141
H   31.885332   33.656673   68.237831
H    8.870641   33.171341   59.077068
H   86.548256   21.456085   53.302341
H   97.356323   20.555956    8.835348
H   30.309599   43.179379   56.957184
H   26.898018   17.246529   17.669937
H   79.759872   65.697678   90.371323
H    5.433343   67.215836   92.436890
H   40.509319   66.012451   65.162506
H   92.320663   13.372831   41.918900
H   80.934250   28.706356    6.527920
H   70.281311   38.349754   86.222595
H    2.247567   47.420250   91.390411
H   12.617220   23.474457   59.135902
H   28.734371   98.184746   99.401741
H   55.123928   64.455399   50.047836
H   68.075500   63.499790    7.797769
H   38.738182   60.228676    0.597876
H   11.093238   33.134628   91.211449
H   87.449043   26.746273   64.152702
H   95.730507   34.429607   96.973625
H   84.659134   56.730110   85.636223
H   83.201508   69.686211   34.751457
H   19.787390   46.208374   99.713264
H   41.028648   52.023632   50.200638
H   57.850407   88.304817   58.647781
