100
TIME:    8.338, STEP:  8338
H   53.457024   57.386742   91.512344
H   70.201309   56.689419    3.842131
H   23.093493   73.773178   25.464485
H   82.876114   89.124138   83.128853
H   20.483438   41.084721   39.627075
H   98.716064   92.174919    4.485732
H   15.975965   24.359346   42.495625
H   64.535934    9.945472   42.626663
H   48.663918   84.627899   75.240585
H   47.019569   36.106327   34.187141
H   24.674576    1.740289   36.591286
H   37.603531   41.631329   99.421638
H   12.063183   57.297249   96.499863
H   42.232933   79.375832   91.765068
H   81.879341   25.241562   49.925606
H   66.270325   82.456932   40.914337
H   53.614693   33.464573   32.429390
H   79.367203   89.112022   10.490709
H   75.130707   28.142498    2.641336
H   67.873276   28.747473   84.022438
H   69.487984   26.142971   30.936934
H   61.752522   55.152802    9.220520
H   74.417885   26.812243   93.789566
H   44.337677   36.574921   87.821579
H   31.368790   24.915016   98.117958
H    8.293056   80.299240    6.238907
H   43.084038   95.875443   65.410202
H   29.005770   45.629353   42.382790
H   92.472313    5.580845   63.030235
H   20.709030   84.473740   46.235382
H   44.208820   69.739510   49.703056
H   92.223808   22.142483   27.373619
H   57.675358   58.434486   48.949844
H   30.402977    9.594746   20.484442
H   73.445869   28.366386   32.342983
H   97.446152   38.498093   93.212959
H   79.521324   99.178474   65.467125
H   19.367828    6.360926   10.831527
H   93.121513   99.748009   36.297844
H   77.846573   31.607424   94.050903
H   65.408279   42.278542   38.784145
H   97.532562   74.300629    5.630874
H   83.044037   13.504993    3.736563
H   46.933903   52.597519   95.980988
H   33.396301    2.919746   69.616386
H   70.495567   21.947395   17.035337
H    6.879482   78.286690    5.502608
H   56.696529   81.248688   84.485756
H    8.760300   41.896576   11.867077
H    0.798362   57.643131    0.538909
H   42.929066   64.663429   41.322601
H   10.355253   90.034332   26.699001
H   81.823982   70.355286   18.614088
H   83.602661   71.165298   99.750137
H   76.910774   89.307251   71.264282
H    3.980728    3.762957    8.781601
H   24.845215   48.957069   49.000679
H    5.191451   89.465767   98.786278
H   47.875637   91.078392   71.378632
H    8.797673   68.675522   26.458031
H   85.667770   90.816040   64.298683
H    2.986017   50.333145   18.086052
H   40.127476   38.313263   61.708771
H   15.594902   87.183655    0.760276
H   63.274780   94.901459   72.050491
H   89.132515   27.766533   39.191990
H   18.595186   36.628719   69.620712
H    4.402992   94.395927   64.807220
H   72.468018   50.670830   37.288193
H   99.365181   67.438858   84.158844
H   57.262043   28.083214   62.133492
H   86.653259   74.745506   67.216965
H   63.337997    5.880597   47.964886
H   46.655148   21.708214    7.738370
H   64.120941   40.592472   33.494312
H   22.771753   41.960625   34.887955
H   24.051254    4.124593   38.617645
H   23.712313    5.522793   74.919983
H   61.348785   29.027386   10.708342
H   90.622398   54.809258    2.595132
H   74.045387   15.542794   78.333801
H   66.972031   98.543686   89.446999
H   45.271812   46.558994   24.011898
H   23.790829   25.660093    1.870523
H   46.339279   27.328899   39.477348
H   59.395489   15.321692   20.799408
H   24.031023   97.111626   21.131325
H   90.127007   37.859016    9.125916
H   28.722790   29.925276   59.996712
H   29.147322   66.230240   22.280909
H   65.248009   23.659252    9.545432
H   95.226463   22.576588   92.400566
H   19.935215   77.699516   63.794922
H   53.100578   19.029652   89.017357
H   12.431602    2.861589    7.685362
H   82.606186   66.473450   36.780525
H    0.771486   46.179344   57.662743
H   22.183046   99.024834   11.495211
H   11.509877   72.807701   46.643078
H   57.115299   64.664047   94.513718
