100
TIME:    6.387, STEP:  6387
H   85.395828   36.301659   93.298538
H   24.081699   50.967121   80.826759
H   89.552628   33.409782   48.370296
H   82.548645   69.505829   90.069458
H   37.963272   84.703644   92.528183
H   28.974598   94.288582   11.271927
H   18.227974   92.617943   89.924797
H   17.880692   41.158237   21.760380
H   96.623222   72.209351   98.047325
H    0.307727    8.091801   57.794621
H    6.151840   23.237127   24.521667
H   12.065704   43.837818   38.294960
H   36.499100   75.355812   90.377129
H   38.834373   85.389351   43.294117
H   58.182503   99.514519   43.751301
H   44.716904   53.098671    2.863864
H   10.502593    4.422109   54.822151
H   37.650173   84.047745   78.118202
H   44.745075   46.296890   99.855392
H   20.441132   70.175087   51.189262
H   85.263092   20.371044   83.888435
H   74.708252   52.562820   75.366241
H    0.466592   42.677162   49.611328
H   25.613235   13.235323   32.718952
H    1.149291   79.639099   83.709328
H   17.430773   37.844032   89.812492
H   11.320366   76.978043   26.694998
H   93.625565   54.563271   77.894180
H   50.050209   28.570347   55.254944
H   45.898594   32.761742   91.137131
H   67.426048   94.790535    4.059870
H   69.036346   76.044205    7.987435
H   20.248466    1.179523   73.188354
H   47.968102   88.392349    2.677882
H   22.001511   76.084541   13.640517
H   27.848368   85.685753   99.345558
H   92.395546   70.629517   11.735858
H    0.007404   42.068913   73.153618
H   75.476044   42.253838   25.364328
H   61.608517   14.253477   40.550381
H   98.745972   75.335258   92.820656
H   61.952408   66.649765    6.028053
H   66.253815    1.801536   62.812614
H   71.511139   19.848349    5.223201
H    2.631203   79.892960    2.662700
H   95.680901   84.739090    9.109102
H   91.633102   72.184647   86.773872
H   56.580517   61.154007   63.769291
H   51.726418    3.479405   89.693832
H   59.836720   27.946642   36.952728
H   43.063030   53.020035   20.755672
H   15.530636   71.074219   54.769417
H   41.358364   59.042725   31.921320
H   28.783875    2.990382   13.657180
H   32.252983   18.330826   54.674084
H    1.550760    5.815219   75.198242
H    1.160943    5.252227   63.444298
H   50.466217   73.714104   49.041489
H   94.006485    8.635880   21.152901
H   37.542427   18.713779   81.949120
H   62.597553   81.546158   16.415752
H   72.230812   68.492783    6.361273
H    7.673433   71.445595   95.494690
H   81.623947   76.555801   53.734982
H   85.834000   50.725674   90.362190
H    8.983631   24.756248   23.833128
H   75.127396   69.175354   75.426346
H   39.172081   82.816322   71.538132
H   75.230232   90.857254   59.652515
H   59.781822   69.391045   88.283936
H   19.216366   60.829712   85.532631
H   47.329380   39.552994   24.247673
H   90.546448    2.380608   97.983215
H   89.607094   45.185642   23.659403
H   70.112541   37.747013   85.575699
H   76.651878   16.919144   66.164093
H   46.858974   72.990257    4.015943
H   32.053204   33.089691   67.171318
H   67.791237   34.758091   88.941017
H   86.300858   61.089607   70.675438
H   35.856247   95.358109   61.724995
H   20.572691   85.891479   52.667469
H   21.866692   13.931424   38.209236
H   89.565010   58.708641   80.063072
H   41.335732   49.375435   28.604263
H    4.291273   43.659729   85.315781
H   93.728004   38.965858   28.100271
H   58.749535   93.979431   29.354561
H   88.230820   38.553810   75.953377
H    1.641566   46.498508   52.535515
H   85.404991   18.311878   68.343552
H   50.872219   75.842896   55.221481
H   94.872604   19.160496   12.921092
H   64.545082    0.665092   57.464584
H   46.165215   77.621414   62.852543
H   21.461639   43.515472   37.552216
H   55.632195   34.216354   69.867081
H   25.948938    2.488362   50.661407
H    4.451228   64.382820   10.058342
H   35.932041   14.734535   82.460670
