100
TIME:    7.115, STEP:  7115
H   36.163406   69.541267   92.632034
H    3.978137   90.414879   26.728367
H    2.070985   85.785881   39.822384
H   82.670837   39.513153   50.166164
H   31.442404   43.055965   72.788559
H   17.682911   93.499886   83.368698
H   80.072388   41.776981   46.855419
H   60.661324    4.140546   54.918915
H   78.727592    2.215067   52.223751
H   80.423653   18.545855   86.298775
H   38.435059   52.529972   54.396095
H   84.281219   80.328903   86.475914
H   90.049706   31.323116   18.037704
H    2.789374   83.145454   98.693779
H   67.024788   34.485954    8.743183
H   15.444702   89.424988   42.434082
H   51.961159   52.571796   21.094873
H   53.218594   48.623062   52.882370
H   56.081196   76.837097   38.207272
H    0.829253   54.715534    0.754928
H   42.062531   47.897110   64.126595
H   44.502319   53.529251   13.370270
H   90.746696   36.756386   28.782652
H   57.972626   21.944307   78.652344
H   75.111275   21.904701   89.085793
H   14.059460   16.351124   21.329382
H   48.544918   46.715591   41.141468
H   32.198997   88.543861    1.955309
H   65.879677   94.620735   20.842028
H   73.813995   14.743822   49.010429
H   96.074608   60.070572   46.462852
H   15.002560   55.929127   40.592857
H   71.528938   47.914803   38.772346
H   78.727257   21.675308   72.007797
H    3.882942   20.964668   57.935181
H   91.132729   42.706406   97.057228
H   62.219185   43.969360   69.099518
H   69.914757   28.744389   24.527420
H   44.746731   26.392027   54.815826
H   93.040092   46.101124   97.827560
H   48.991455    0.317984    9.971281
H    0.600390   69.504623   43.193104
H   72.518951    6.168692   15.398432
H   25.027149   32.067589   76.402092
H   39.482239   51.169125   64.959908
H   86.283195   98.624588   12.066713
H   97.320602   11.775689   93.761055
H   56.621883   68.652176    8.813602
H   73.006905   43.185246   60.655838
H   75.120361   39.028286   86.051430
H   43.013042   82.735992   28.428799
H   50.917713    3.519120    6.981334
H   56.460232   63.263916   89.640633
H   11.926880   91.114441   45.781082
H   74.287918   82.129738   60.867016
H    2.457483    5.049434   50.415405
H   47.311230   84.245964   32.683250
H   96.258469    4.963164   30.290258
H   51.421204   39.400257   65.266228
H   89.502480   74.671280   61.243065
H    8.519936   47.690437   59.653488
H   46.392677   61.716660   73.423965
H   57.098888   21.768265   45.573547
H   31.613605   80.521500   33.967587
H   14.728549   92.580902   58.158054
H   64.261749   88.565697   66.878174
H   16.718710   94.346985   10.574035
H   88.883919   24.452127    6.340743
H   11.511700   38.547806   13.991506
H   74.532188    6.004900   86.750977
H   96.098244   11.297231   76.801430
H   87.357323   15.362565   77.574272
H   43.080261   66.373459   79.321106
H   73.577675   99.111633   80.404694
H    5.208710   38.791637   40.765705
H   93.858788   63.579075   17.180525
H   12.976520    9.978657   16.926893
H   66.255966   85.488121    7.373466
H    2.704586   32.619724   97.061256
H   50.598465   21.431885    7.957598
H   50.102768    2.890268    5.236397
H   75.199959   90.612549   91.763542
H   67.916084   26.105993    7.539285
H   39.650150   21.005123   13.572363
H    5.888121    3.836186   58.032906
H   87.538559   70.401871   35.870514
H   42.349552   86.034004   62.814018
H   70.457787   35.724293   21.806404
H    3.338701   98.020943   69.999275
H   37.277096   16.544712   78.560043
H   15.197865   57.619911   83.717575
H    4.736849   30.594952   69.092354
H   41.538624   41.005161   69.218452
H   34.903946   44.831627    6.552503
H   33.579399   12.410721   79.581787
H   81.591400   14.768542   99.949699
H   97.847466   75.995041   27.999260
H   24.543726   38.509525   36.048309
H   69.770897   67.526497   49.082081
H   81.150887   96.052689   12.329331
