100
TIME:    4.974, STEP:  4974
H   80.951332   65.880196   94.592178
H   63.105415   74.398438   91.732178
H   65.253754   31.752911   64.960609
H   82.311478   27.722191   67.522591
H   50.619385   71.445541   30.838223
H   50.891018   95.819389   71.338737
H   92.283211   97.205093   79.426285
H   28.939705   18.916561   51.498386
H   31.357521    8.063578   86.991386
H   38.913170   87.802635    2.464423
H   37.585663   66.382248   60.627789
H   65.999321   73.011620   38.873848
H   26.665787   60.802773   30.780273
H    8.798379   89.744606   35.763916
H   41.002785   25.729517   11.676037
H    1.529398   76.684769   20.155643
H   24.127754   10.962977   26.191191
H    7.433636   52.798931   27.101076
H   22.740143   87.018372   25.411989
H   58.506493    0.187503   54.985664
H   69.112511   61.040817   22.241722
H   39.242569   50.687042   95.696259
H   19.333961   54.168999   90.037582
H   56.902416   96.331757   37.660484
H   51.684967   91.696060   73.273964
H   23.872023   79.613800   22.685934
H   33.164986   35.713512   98.657021
H   12.850482   88.609222   31.186197
H   19.326256    0.372512   22.048267
H   91.719070   67.733147   78.807503
H   11.812720   68.082901   15.851891
H   79.818672   15.087171   38.795937
H   20.718815    4.561224   45.894157
H   88.264435   17.885193   62.204338
H   57.131332   82.923752   27.610214
H    5.019332   75.013573    3.789077
H   56.869644   22.377399    0.397193
H   58.405704   67.929298   73.442116
H   35.118618   73.042473   62.294678
H   94.698418   46.534363   29.377954
H   95.314529   26.853575   59.530987
H   84.585686   35.093353   36.481388
H   54.084812   93.327545   60.750015
H   61.735546   96.131226   67.066696
H   25.198389   35.642693   81.748924
H   13.915993   57.788258    3.367686
H   80.594040   95.340294   73.212212
H   56.505054   46.600555   76.340874
H   10.426956   20.503368   46.059891
H   30.197399    6.438810   35.775887
H   43.165134   89.435593    5.860806
H   46.859108    2.188922   47.528847
H   12.046998   50.849670   13.986380
H   61.502190   26.047997   51.304893
H   44.757996   94.501228   42.654011
H   99.789810    7.301558   23.300110
H   11.582646   46.024162   29.056343
H   55.681046    7.154523   85.435898
H   82.565392   48.933044   29.625980
H   30.786160   10.105565   22.138191
H   73.464294   47.257290   26.583900
H   22.378683   81.644791   70.298004
H   11.744771   67.866257   92.388336
H   84.595497   68.858643   92.094299
H   29.748331   63.580128   58.776112
H   95.785454   95.000908   40.285027
H   88.494843   20.327229    7.206444
H   36.777672    2.005015    3.988563
H    4.804398   92.386421   48.272804
H   31.159876   98.319336   91.259308
H   64.085655   56.969177    2.479962
H   63.836960   86.447449   20.794376
H   82.676971   72.270790   34.215248
H   20.712048   34.614674    7.615739
H    1.988703   35.731091   78.460785
H   43.247704   26.359072   61.241146
H   18.561560   95.432808   79.016243
H   65.667892   25.482342   89.134865
H    0.035713   38.908520   73.180168
H   55.590851   38.058826   92.406769
H    8.205450   80.739975   77.273415
H   14.530097   76.711563   70.854637
H   32.491402   90.302185    3.641763
H   92.353271   37.795334    9.119508
H   10.136348   37.758553   65.578896
H   36.815388   91.757454   87.192764
H   99.356926   41.702606   60.723053
H   36.019150    7.064428   44.015953
H   58.908310   17.228025   87.509895
H   26.569925    4.630180    2.027035
H   27.579277   42.013180   38.503582
H   46.324528   69.571671   28.302984
H    4.296542   76.767189    3.651623
H   27.983688   14.942121   62.188534
H   70.593452    4.188235   30.382442
H    4.753608   99.314484   10.535465
H   67.789635   53.128277   51.129776
H   25.123190   58.588318   76.439857
H   71.763245   58.291256   28.412338
H   48.164448   50.991367   18.579042
