100
TIME:    9.378, STEP:  9378
H   83.126373   62.014290   90.560196
H   41.478165   13.043276   69.419060
H   40.970081   48.594505   13.256702
H   83.050674   46.277458   26.122038
H   11.164286   24.445038   11.430185
H   82.593018   91.048210    7.480284
H   61.467434   94.584770   23.824993
H   82.793991   99.918869   47.137428
H   23.098732   84.635422    9.775156
H   18.611937   51.039188   74.907356
H   27.936310   43.585144   36.410973
H   97.907295   93.761452   25.392452
H   45.745773   94.351097   93.147903
H   90.739426   76.170265   70.910866
H   94.511177   32.343636   99.913841
H   24.454422   91.494675   54.585022
H   69.984016    2.253564   27.104689
H    1.609813   38.505333   74.437576
H   91.333099   71.773285   57.429630
H   39.855213    6.661596   54.830437
H    7.772631   22.607935    2.708848
H   61.458340   56.533417   20.654922
H   60.532387   18.357958   64.034927
H   47.706791   49.016327   10.581944
H   94.174057   42.438614    5.795822
H    3.387462   49.640060    8.370043
H   53.404175   52.645817   86.040085
H   41.253159   94.173050   76.760338
H   15.086892   99.937859   13.869102
H   60.587059   58.733994   28.912296
H   85.139168   62.998180   67.421585
H   57.889942   93.408752   31.095619
H   30.930908   82.343536   42.641258
H   74.344772   14.284857   76.671455
H   47.563301   49.623787   95.617218
H   87.851242   19.957872   89.943916
H   79.270844   61.092537   47.414997
H   76.380821   87.331734   84.220558
H   49.224796   77.086876   35.514175
H   79.890274   34.246208   75.876846
H   94.332077   77.963409   63.286098
H    9.887159   78.378998   58.723011
H   91.994232   19.744740   78.855034
H   80.531898   70.058754   97.665474
H   43.183685   61.897076   58.614590
H   57.074371   41.781811   21.260496
H   15.010537   34.846981   15.490025
H   56.760006   91.960358   48.834660
H   39.157639   55.763432   70.383484
H   22.627745   73.477348   27.822750
H   43.499653   64.307610   51.302597
H   60.899944   93.530075   58.428780
H    3.391022   76.385559   58.214264
H   59.514786   54.196602   45.640938
H   94.104164   80.448242   80.103394
H    5.276047    2.668978   73.377533
H   90.776779   18.948524   47.913338
H   27.750402   91.250435   71.999168
H   29.901848   35.023651   91.536217
H   40.167164   48.613125   96.877968
H   51.274586   42.450436   83.216911
H   66.074364   40.652969   71.031883
H   10.732657   67.345116   90.392853
H   87.010498   92.848938   72.528885
H    4.551024   11.837391   68.900917
H   25.243774   76.065483    0.684931
H   35.154434   72.582153   19.832119
H   32.563278   53.875496   14.525238
H   24.299860   75.943069   72.061951
H   20.487289   19.677683   81.953033
H   24.231361   57.320026   49.660347
H    1.012238   40.214256   43.449131
H   95.528809   54.434879   21.296795
H   23.763912   55.885418   45.944313
H   14.218701   42.123844   12.347784
H   47.360985    8.614181   64.907547
H   18.505238   14.110104   57.065521
H   72.567528   37.523521   32.361938
H   11.223617   25.972576   22.315714
H   39.618980   98.154610   12.998075
H   94.405495   26.302073   40.493706
H   45.013214    5.293512    2.440822
H   11.052435   63.951572   23.056171
H   95.340782   14.654850    6.882576
H   95.700851   62.268509   38.661652
H   35.456890   53.524918   93.019867
H   93.490257   21.495171   70.722389
H    6.852584   54.639442   98.343994
H   50.305424   72.020317   51.490852
H   37.197620   23.439514   59.455406
H    7.809363   79.814438   31.508324
H   72.175934    0.795079   12.216538
H   86.601471    8.900457   44.219719
H   52.969826   82.075790   60.127270
H   94.449539    9.704891   31.581011
H   68.505936   25.404753   83.062897
H   18.220901    5.862987   97.850357
H   20.175600   50.483013   90.613609
H   61.966728   77.298668   59.532726
H   21.715553   37.979893   94.327057
