100
TIME:    5.602, STEP:  5602
H   38.481606    8.290080   94.017227
H   45.761055    8.426991   31.329132
H   76.053253   76.934479   57.587482
H   82.416885    1.846993   33.097878
H   44.994446   21.782427   13.812326
H   41.150387   95.139030   33.530941
H   59.367931   39.611874   28.536776
H   79.580139   73.245468   93.836418
H   15.920082   47.683975   47.461487
H   21.752310   96.819786   27.057844
H   79.170639   91.651352    0.136886
H   42.029045    4.490036   94.173027
H   86.591721   22.826668   68.378838
H   77.703468   87.808937   83.554771
H   48.640053   69.634293   81.489838
H   76.279327   21.757767   68.026093
H   73.627571   52.498554   83.360504
H   20.862799   22.244301    5.331987
H   32.521374   13.362971   58.495640
H   41.588554   86.848671   97.742867
H   31.846092   98.519836    5.196815
H   99.449539   51.520721   42.216217
H   10.948535   49.061516   72.070358
H   98.551079    3.844454   91.019821
H   29.223839   41.893578   77.911903
H   21.009245   61.051697   63.629883
H   79.012634    9.607700   11.117884
H   59.860401   17.922112   51.946724
H   32.981346   57.349155   92.363251
H   15.799109   52.190300   28.731129
H   36.529076   24.397995   66.166527
H   19.470768   97.736633   80.658867
H   64.955803   58.613228    2.469357
H   14.799108   60.332848   35.747002
H   41.521408   35.451950   65.849487
H   59.609806   24.201530    1.813982
H   17.104038   99.377075   49.880962
H   32.451450   56.436703   17.759678
H    8.608912   59.358635    1.437246
H   35.547832   87.742790   78.788658
H   52.394424   48.399872   74.326393
H   28.144478   63.280334   65.981499
H   59.494144   97.093475    6.112914
H   21.637493    6.672309   28.470121
H   70.722878   10.866839   35.489117
H    5.812378   69.766403    5.919920
H   85.500290   29.494347   79.239616
H   56.538593   53.068756   15.197898
H   28.782272   68.491272   21.007446
H   43.368572   15.997374   91.853439
H   43.117222   28.806864   12.481130
H   77.379433   43.915859    6.300081
H   25.074070   54.491028   77.514366
H   46.960716   15.799516   79.017540
H   94.754967   49.537907   47.996265
H    0.573003    6.640963    1.921508
H   51.393356   27.903618   88.784187
H    8.919351   47.848091   69.260605
H   32.094521   75.467216   81.414970
H   89.344864   58.377506    4.276375
H   13.078827   18.053417   77.619438
H    0.091975   75.799454   41.882103
H   54.381054   25.012838   49.324493
H   27.718483   72.279602   75.046997
H   54.677040   13.421318   17.258936
H   57.206230   63.781059   77.417290
H   38.109955   42.037716   37.527481
H   93.397163   37.922215   34.010593
H   36.105328   47.262337    8.884074
H   43.880829   29.906052   89.936920
H   44.144432   14.240673   94.947456
H   12.056984   65.605469   66.775223
H   41.730865   41.207779   18.111824
H    6.889263   94.868736   70.301781
H   32.266613   36.627056   26.067955
H   58.095818   66.609795   18.986288
H   75.580803   41.002071   90.122383
H   95.172470   84.419670   23.816843
H   30.149296   37.063885   80.184990
H   24.796497    3.851470   38.303864
H   20.494272   87.236923   14.807643
H   61.656227   80.800629   18.333498
H   72.214745    0.804552   63.450809
H   35.558685   91.534103   51.760212
H   79.558006   98.475655    4.701372
H   22.360157   14.824119   30.803223
H   41.299644   96.041740   90.668427
H   46.124565   56.796734   37.493713
H   71.940536   82.262077   82.373665
H   71.047333   78.794846   24.475897
H   53.279594   75.922607   51.765789
H   92.790169   16.803370   40.266762
H   44.552399   95.606636   52.215839
H   88.679512   53.039989    4.533420
H   59.736458   47.937160   44.813450
H   56.623825   74.514923   78.098251
H   17.942045   89.168129   15.013227
H   27.427801   63.935364   66.387794
H   41.846619   60.998318   75.811317
H   87.172943   34.878361   58.083073
