100
TIME:    0.386, STEP:   386
H   91.219154   86.623207   98.792618
H   90.532906   25.673027    2.349275
H   86.396454    1.674626   18.807594
H   81.541397   16.746870   19.004942
H   91.713684    3.697122   55.239006
H   22.030731    0.793537   16.972170
H   32.740627   87.402031   20.638475
H   89.547455   21.996181   72.753456
H   44.139381   49.181107   75.790504
H   64.291817   21.928421   22.804865
H   64.350250   81.774155    2.568367
H   41.108578   43.038765   65.453117
H   18.709263   38.353958   86.763603
H   35.969410    3.887140   86.614662
H   85.197395   35.544106   32.217281
H   86.003510   77.975349    0.998510
H   93.032738    7.523795    8.499463
H    9.393168   75.929413   86.164352
H   51.274933   94.545319   83.698578
H   82.200722   97.438782   42.521721
H   41.370758   17.789543   46.765717
H   99.359901   44.609413   86.388435
H   80.590370   91.482903   21.306297
H   83.177933   41.311222   78.407578
H   15.778048   55.561817   39.408890
H   44.889072   16.107960   52.993172
H   28.793192   26.431072    7.625847
H   99.972038   74.456360   79.534012
H   19.564499   84.113091   38.925262
H   15.794703   81.286240   14.074585
H   31.285891   56.657082   78.867119
H   90.129730   41.846260   63.530128
H   97.546570   40.240242   32.570885
H   94.411263   38.348022   55.489494
H   71.177193   29.741653   48.232414
H    6.116021   14.807955   19.316160
H   16.821774   90.399269   38.880505
H   48.035278   51.889324   49.679562
H   33.366825   72.268028    5.129872
H   26.836884   76.047676   68.404778
H    8.863560   69.423775   51.434452
H   96.929680   29.181345   20.934927
H   14.565997   65.814667   29.354633
H   54.710526   19.240492   18.472946
H   23.173172   16.662159   89.138245
H   73.021599   70.460503   84.831993
H   40.155872   46.564075   30.921576
H   56.260029   99.357315   92.461456
H   76.311882    0.481573   29.075872
H   33.985439   36.624561   56.666466
H   43.515171   32.378166   57.486805
H   23.891436   27.920692   48.722542
H   16.886126   24.246887   80.452309
H   67.748932    0.903902   48.849201
H   10.029539   92.343475    3.681527
H   94.049210   12.126276   79.486450
H   20.722923   78.409004   92.699165
H   97.316589   40.433891    3.612169
H   20.720230   55.078217   81.850449
H   33.546509   57.458061   52.630821
H   84.049637   60.618462   84.300018
H   85.211243   24.352524   77.890259
H    0.414378   80.831032    7.076882
H   69.546272   43.894226   16.659994
H   47.643730   30.014656   31.508291
H   77.632820   23.083912   69.009193
H   56.599266   61.705311   85.697983
H   53.702156   39.613388   84.655632
H   76.141258   22.050819   36.023403
H   38.205818   67.559715    0.919065
H    9.774733   69.141136   57.517948
H   42.139439   38.715004   84.882942
H   81.823624   99.214790   51.851780
H   21.694794   24.952524   80.267479
H   80.781906   29.192930   30.659771
H   34.784023   32.311195   69.955704
H    2.000833   93.088493   97.863708
H   50.115311   25.480801   35.757679
H   80.055046   52.371426   21.992493
H   80.595322   87.932106   87.666992
H   18.435528   33.275005    3.059298
H   70.285835   46.748428   54.502975
H   42.219173   13.700149   66.664459
H   76.723602   45.192112   28.173317
H   33.535202   24.739044   10.334046
H   42.409176   23.232262   68.588249
H   92.934776   75.287575   41.949123
H   62.169006   74.389961   91.726784
H   63.693550   72.680382   25.042648
H   32.208534   93.403702   38.011089
H   39.819279   94.274841   41.613354
H    6.846827   24.536779   40.878731
H   10.050644   39.196732   48.776970
H   84.536171   36.646271   52.843845
H   49.918400   15.153622   24.956303
H   25.803635   80.488640   47.511604
H   31.963099   89.832268   14.989811
H    8.282420   19.524231   49.859512
H   90.324028   38.514187   12.718906
H   63.213390   68.789635   60.508774
