100
TIME:    9.560, STEP:  9560
H   70.818268   45.323921   90.393570
H   36.451614   22.906040   80.894035
H   44.098484   61.688530   11.120071
H   83.081223   38.779289   16.146002
H    9.533434   39.033142    6.495626
H   79.771484   90.851036   25.504356
H   51.929485    6.874179   38.057629
H   68.489151   15.663921   30.426231
H   18.624825   67.136917   98.318932
H   13.640234   53.652439   82.033394
H   11.007111   50.908356   18.879663
H   90.961769    2.884097   12.437977
H   34.140274   83.334343   75.060654
H   81.727737   75.609291   84.760262
H   96.721748   16.086494   91.160423
H   17.136070   75.576340   39.477600
H   55.348701   14.291180   43.672867
H    5.501967   29.649162   68.128006
H   94.168518   79.407532   67.018005
H   34.952244    2.796568   67.221855
H   96.972275    4.489222   97.768524
H   78.906860   56.775024    5.155962
H   58.102425   16.878458   58.827866
H   30.795692   51.193573   97.065079
H   87.664536   28.004639    7.139244
H    2.528904   44.274704   91.243263
H   37.709396   45.079609   89.650314
H   25.896910    2.668188   82.775536
H   19.044338   16.450121    5.266287
H   67.565910   54.229538   43.380836
H   92.301308   79.319107   53.022324
H   69.381577   88.379425   14.246956
H   43.751389   69.027344   59.037254
H   82.034561   97.605827   69.003883
H   43.033852   35.843819    6.690211
H    3.672220   34.213528   89.371834
H   96.727692   54.427498   61.755939
H   68.857658   84.001991   97.064644
H   41.541950   73.121178   17.877373
H   62.747341   17.207314   90.195572
H   81.893448   84.209106   67.573936
H   94.549019   79.092712   68.014351
H   93.560516   20.836834   92.001823
H   68.912514   73.113564   15.459941
H   27.397058   54.716885   74.189041
H   54.726334   45.253185   21.999899
H   16.433559   44.745953   17.237616
H   56.771114   93.834900   60.095798
H   44.477173   40.690723   63.123978
H   26.447645   76.248894   15.097361
H   44.513294   46.813293   51.644180
H   69.745010   76.642532   46.481697
H    7.166128   77.440857   47.643234
H   55.300537   51.226494   53.672310
H   79.613258   96.397125   81.650238
H    5.502728    2.477531   67.181824
H    2.315405   13.696877   65.223000
H   14.198804   74.062965   67.311424
H   44.256573   42.714828   77.564629
H   28.157597   62.602764   91.701454
H   62.756504   33.987225   69.028709
H   59.614830   38.958939   62.797577
H   23.088669   54.925926   77.912567
H   99.507446   93.840363   67.588425
H   11.774955   97.301003   85.849556
H   14.063805   67.017693   11.446517
H   20.551899   78.875061   28.619556
H   19.991348   64.284065   23.225891
H   33.371254   62.865707   60.647663
H   24.183609   28.818506   81.567017
H   18.451523   44.935551   47.477547
H   86.024300   34.171288   56.788929
H   83.662262   45.432911   16.629879
H   19.757946   44.367397   35.130287
H   22.985312   42.391834   26.147100
H   51.664101   20.278694   52.661827
H   35.035103   98.357224   60.293900
H   81.118217   25.623650   42.413651
H   19.950842   25.437984   24.347162
H   30.693485   88.240364   97.318794
H   97.968513   28.184946   51.371605
H   58.669601    6.474995   87.214119
H   22.564207   66.995277   40.389439
H    7.862283   30.229488   90.259361
H   86.839127   50.883789   21.019171
H   31.267635   60.210785    5.658580
H    5.645674    8.262088   79.400826
H    9.779367   40.076332   96.458344
H   54.082279   61.886681   50.002327
H   21.106188   15.951065   65.961182
H   15.257891   89.642593   35.351830
H   85.642090   14.482981   15.683747
H   98.268066   14.361624   58.294060
H   69.532448   93.039780   73.976662
H   91.303085   93.402565   35.763252
H   83.538376   18.218313   73.662415
H    3.774829   16.307301   87.383469
H   19.824297   59.487759   86.958946
H   53.296623   78.084587   44.287838
H   33.019737   33.310200   76.795227
