100
TIME:    0.646, STEP:   646
H   73.636147   62.779823   98.554581
H   83.300545   39.770329   18.749632
H   90.863617   20.379749   15.754768
H   81.585037    6.034208    4.753127
H   89.384888   24.537270   48.189140
H   17.998978    0.510558   42.721256
H   19.114048    4.957749   40.970814
H   69.111969   44.488705   48.881042
H   37.748085   24.183243   59.424896
H   57.186409   25.660645   32.986900
H   40.165680   92.235886   77.523003
H   31.184414   56.071297   46.945732
H    2.170970   22.623672   60.920944
H   23.095570    3.085501    6.400136
H   88.359322   12.320840   19.719324
H   75.549713   55.234104   79.416489
H   72.129112   24.718002   32.171425
H   14.948855   63.285675   77.150681
H   55.323547    5.452255   97.397614
H   75.162758   91.987732   60.259453
H   25.941986   91.905670   39.709900
H   24.290638   44.952583   64.250984
H   77.118996   89.368340   13.866789
H   59.021133   44.429508   59.098297
H    6.479741   34.941853   41.329041
H   43.696903    8.361333   28.623983
H    6.373072   15.623178   12.785284
H   78.032951   86.592285   88.127151
H   25.217880    7.702388   26.635048
H   25.763510   74.851303   34.743282
H   41.513554   79.972816   58.292778
H    6.546046   34.663490   39.460609
H   15.860844   21.217672   55.993736
H    5.396915   14.520539   44.535820
H   64.714485   10.087573   64.063873
H   28.722603   35.232372   18.421537
H   41.758747   80.877785   59.367565
H   37.289886   47.130566   68.026711
H   21.678097   66.717796   80.211014
H    2.347833   51.707378   88.860100
H   91.095078   78.346199   57.561924
H   73.562370   40.851112   33.150196
H   16.805212   67.373810   48.133919
H   38.107437   23.597563   43.894783
H    0.620166    6.404216   11.387293
H   69.700981   75.348198   85.851585
H   42.901234   60.590412   33.143257
H   56.273914    2.034540    8.548705
H   83.913200   78.947189   18.704397
H   39.438473   40.581928   38.482414
H   43.495335    7.276175   60.228199
H   36.526604    3.794596   31.653297
H   22.279650   25.754456   65.352821
H   61.729809   96.662544   60.322590
H   89.331467   15.136267    5.887815
H   94.374527   11.853029   70.635437
H   37.205009   70.906868   17.427559
H   77.956238   15.880363   96.915115
H   41.225143   66.063629   61.890827
H   16.389984   77.441925   45.235802
H    0.450409   48.528160   64.027191
H   75.983337   21.932480   66.127258
H   18.050385   63.101234   89.239845
H   87.399055   45.308563    9.600210
H   57.964622    9.248732   55.722595
H   61.660530   10.158497   84.382423
H   35.739281   70.694672   98.250473
H   35.742256   54.482773   97.085136
H   89.098412    3.368878   19.715878
H   43.472389   80.635887    0.372323
H    1.518012   51.449604   54.399662
H   20.701689   30.086159    3.918204
H   64.871414   86.352852   45.184757
H   15.971988    8.498974   64.814903
H   93.318527   29.562880   50.369312
H   40.931332   48.975777   52.461285
H   25.607235   70.554314    2.464923
H   62.330582    8.479992   50.117268
H   92.516289   51.610203   24.891586
H   67.844467   73.772865   65.267700
H   23.523571   35.964825   18.598568
H   89.792976   48.446426   32.760269
H   58.669521   18.039629   91.428253
H   94.608124   67.440651    4.425148
H   20.874723    8.475389   85.130074
H   36.424526   32.782589   86.643364
H   10.299612   56.383461   54.346889
H   66.354492   53.573616   89.025063
H   69.089058   58.203758   22.915192
H    9.221100   82.703934   47.306438
H   50.459538    8.314348   47.104076
H   26.084414   44.091148   45.831886
H   26.732086   46.986496   68.891106
H    9.665586   52.418213   70.374016
H   45.423466   91.864441   30.930042
H   47.278549   70.221306   34.082344
H   11.326160    4.753102    0.036717
H    9.237048   21.737976   45.699814
H   77.938164   39.634945   90.939583
H   79.360245   62.112133   35.467270
