100
TIME:    5.294, STEP:  5294
H   59.310707   36.534492   94.299210
H   54.267525   91.737305   11.908767
H   70.756683   54.775360   61.203907
H   82.365189   14.537376   49.981575
H   47.753174   97.094955   22.162685
H   45.927639   95.472710    3.028359
H   75.510750   18.813320    4.450733
H    3.788338   46.599667   22.116062
H   23.491310   77.296829   66.849785
H   30.168310   92.397362   14.996046
H    7.820038   79.258224   29.804947
H   53.785362   89.051659   16.096380
H    6.245865   41.452187   98.983330
H   92.954018   88.758278   60.116943
H   44.894386   97.146378   96.293915
H   88.663055   48.696487   93.592499
H   98.395027   32.127674   55.322052
H   14.276313   37.230083   16.008547
H   27.724274    0.441291   42.269901
H   49.885887   93.390663   76.772774
H   50.123253   29.182907   13.556419
H   69.921280   51.111847   68.445282
H   15.061366   51.566460   80.882309
H   27.168728    0.159882   13.894271
H   40.239655   66.320084   75.637245
H   22.413282   70.155792   92.594147
H    5.570940   22.411171    5.006359
H   85.849403    3.545712   41.764809
H   26.284264   29.404806    6.922513
H    3.989333   59.813225    4.246785
H   24.406918   96.779190   90.534508
H    0.023750    6.246289    9.171913
H   43.259708   81.148323   74.722282
H    1.785030   88.559288   48.722893
H   49.177231   58.734299   47.095078
H   32.835575    0.077049    2.782601
H   87.562439   10.657429   25.611675
H   45.180607   62.074001   96.025124
H   21.610317   66.069817   31.283964
H   64.556816   16.576496   54.556049
H   73.444412   37.832581   67.070045
H   55.825920   49.456146   51.513126
H   56.841160   95.246490   83.864906
H   41.303417    1.502362   98.355759
H   97.440712   23.018181    9.132140
H    9.786964   63.891773    4.668576
H   83.094040   12.743417   76.283501
H   56.522144   49.896454   96.140678
H   19.779984   94.001282   33.293777
H   36.908825   11.309416   13.395515
H   43.140720   58.542038    9.234220
H   62.410866   72.496429   26.520546
H   18.684818   52.705139   95.401451
H   54.092522   20.825829   65.425987
H   19.278870   22.545549   45.376179
H    0.189367    6.964949   12.406555
H   31.868423   36.790764   59.490913
H   31.852928   76.934578   77.193710
H    7.803907   62.453552    5.059330
H    9.670254   34.702732   13.036629
H   93.649841   32.376919    1.634819
H   11.022482   78.666275   55.819084
H   33.469707   46.030319   70.444977
H    6.568606   70.601807   83.407776
H   42.450752   38.021046   88.575920
H   76.127251   79.092705   59.205925
H   62.821014   31.390461   22.656868
H   14.673142   20.306932   19.286413
H   20.753736   69.393257   28.202003
H   37.641968   14.414581   90.585480
H   53.924522   35.196716   98.641426
H   37.452682   75.827332   44.223969
H   61.812714   56.441879   26.009682
H   13.668591   14.362144   88.602440
H   17.416735   36.187634    2.718702
H   50.813622   46.868988   39.710384
H   47.616169   67.698433   84.675423
H   80.702072    4.558219    6.806550
H   15.380443   37.968578   76.749504
H   39.898445   20.628998   64.838409
H   14.467047   84.050522   96.399391
H   38.541290   78.801407   44.096825
H   52.733101   95.653748   34.117588
H   14.369078   65.178146   79.891632
H   94.554771   17.741463   34.558388
H   29.449665    3.510749    9.414676
H   20.729025   18.436005   75.981842
H   41.170517   81.444519   40.688316
H   65.548935   99.411308   84.892708
H   98.277435   91.465256   13.465794
H   40.674980   59.291012   45.261395
H   70.001289   93.639053   34.399178
H   24.808931   86.367012   28.397724
H   58.911972   34.353954   83.765480
H   65.061226   75.525810   37.735691
H   31.184311   86.677765   94.006760
H   42.389244   71.492531   32.726456
H   26.297506   61.312927   71.317787
H   56.519104   59.670650    1.608153
H   68.040436   42.780918   87.752792
