100
TIME:    1.827, STEP:  1827
H   93.770172   54.476089   97.473343
H   50.448936    3.801366   93.246910
H   11.159330    5.346137    1.888423
H   81.783264   57.377953   40.019238
H   78.806778   19.199619   16.167397
H   99.685188   99.228767   59.680447
H   57.216007   84.705437   33.326637
H   76.287697   46.660130   40.445221
H    8.716850   10.634842   85.084053
H   24.912451   42.616371   79.233879
H   30.311935   39.755680   63.762608
H   86.108627   15.268494   62.881126
H   27.047272   51.171394   43.539833
H   64.619240   99.444527   96.274788
H    2.722497    6.832424   62.951996
H   28.065353   51.933998   81.384537
H   77.179398    2.819427   39.698494
H   40.186653    5.853571   36.207809
H   73.718361   54.999916   59.614330
H   43.294945   67.013290   40.723274
H   55.859863   74.334229    7.656788
H   37.532597   46.511368   63.690376
H   61.350945   79.763344   80.077179
H   49.293434   58.593723   71.386154
H   64.239861   41.276154   50.042015
H   38.281704   73.168457   17.927862
H    4.534145   66.532974   36.221111
H   78.384567   41.717892   27.162790
H   50.897278   14.851872   70.809135
H   71.048729   45.621841   28.629459
H   87.970741   85.881332   64.839264
H   81.115143    2.036382   30.129509
H   99.048416   34.809761   62.387543
H   55.296516    6.289120   94.783173
H   35.358879   20.813118   35.979713
H   31.405655   28.004011   14.359059
H   55.031479   37.628273   52.425724
H   88.478157   25.514820   51.366901
H   68.586929   41.506935   67.018600
H   91.110497   41.145710   81.779129
H   10.386665   18.872286   85.387863
H   67.420837   93.853722   88.635712
H   26.977858   74.455917   33.439743
H   62.692894   43.391312   59.367596
H   98.177162   59.804569   12.451319
H   54.516712   97.764015   90.589302
H   55.371510   24.296831   43.234810
H   56.336987   14.194052   81.622353
H   18.436132   81.137047   71.595963
H   64.207756   58.557507   55.880856
H   43.405231   93.258125   72.680450
H   93.922310   94.206924   54.123806
H   46.778694   32.602295   96.759972
H   34.383503   77.398491   12.437208
H   95.312057   18.669195   15.909538
H   95.852219   10.611858   30.431412
H   12.076406   36.829857   29.750448
H   90.014984    4.349712   66.496292
H   34.368279   15.963515   71.224472
H   38.455242   68.218185   11.645640
H   74.949142   93.608589   71.947655
H   34.067352   10.938858   12.687579
H   98.156464   82.565361    8.218877
H   68.497314   51.732918   77.538811
H    4.837970   14.924287   65.707108
H   89.109871   51.447426   54.211849
H   40.985306   11.527722   55.270153
H   54.162422   22.025459   53.543766
H   47.960640   18.509750   45.646912
H   67.396057   40.035988   97.885986
H   64.016930   71.091637   40.235447
H   23.322897   90.890366   90.386040
H   87.867477   27.935535   14.901089
H   89.982018   33.763123   94.624519
H   50.257812   31.243303   39.897320
H   68.852730   24.665789   72.994804
H   32.834419   68.195786   23.359880
H   17.816113   31.257231   15.337535
H   49.126747   48.150242   38.062233
H    9.925926    9.451174   63.523506
H   46.635029   48.182812   89.184517
H   78.405304   56.159256   34.005325
H   33.397053   37.751007    3.912660
H   75.851875   68.500343   96.553650
H   63.369766   34.604431   70.645309
H    9.240406   76.164726   68.655663
H   89.175911   70.515137   10.661665
H   85.366257   59.020523   76.750526
H   93.597115   92.448158   13.252270
H    4.806612   34.107841   89.528770
H   98.790871   72.083160   72.044632
H   13.466719   32.913219   68.332375
H    2.508385   82.374680   60.256882
H   23.814037   24.053286   50.003227
H   25.004547   86.077972   58.068932
H   44.824310   23.584730   73.081955
H   17.583809   72.528313   32.116959
H   13.573262   31.793488   26.803944
H   21.678585   44.725773   92.012070
H   52.704239   31.774437   21.719631
