100
TIME:    7.862, STEP:  7862
H   85.647453    1.038442   91.948135
H   83.347672   30.894222   73.830399
H   14.911516   39.527267   31.051689
H   82.796219    8.735546    9.219067
H   24.748743    2.931278   52.533752
H    6.097741   92.690605   57.346970
H   40.922535   92.217041    5.271809
H    1.948601   68.763939   86.331017
H   60.364906   30.394176    5.201583
H   60.020668   29.271669   15.548210
H   68.950943   82.587326   82.441589
H   55.772385   17.771770   33.302773
H   42.416145   86.109451   43.802784
H   65.801964   80.842995   55.542721
H   76.097847   67.760239   72.816925
H   85.408813   24.089844   80.426056
H   91.891670    1.981986   89.097229
H   69.191483   12.273981   26.990543
H   67.714996    8.172376   77.561920
H   80.700058   38.854778   51.614113
H   97.734505   73.530884   43.854656
H   16.117937   54.520905   49.756348
H   80.773170   30.681704    7.408534
H   88.564819   30.880587   23.173000
H   48.393623   62.665413   94.602577
H   10.537380   94.331711   51.033745
H   84.130142   15.662366   55.964977
H   69.168144   23.411276   26.647718
H   82.122276   62.394093   85.531578
H    2.457812   96.254623    8.395329
H   25.474070   27.056713   87.362663
H   62.168758   35.292477   71.439354
H   24.145296   93.261452    6.068005
H   10.289664   53.217293   40.537048
H   85.292122   64.406303    3.381368
H   56.067799    1.214023   94.709175
H   33.867352   16.611799   27.960051
H   39.041328   15.072206   77.240364
H   13.213418   10.118082   82.426323
H   22.681263   76.169678   56.601212
H   97.940079   25.947271   27.569792
H   37.647484   72.433990   81.328758
H   78.947601   10.649654   69.352943
H   77.327805   44.605736   49.439640
H   74.684883   21.698780   28.882946
H   76.640221   12.870231   15.101515
H    3.158462   52.400703    0.931190
H   56.667477   76.346039   55.033550
H   94.846077   81.319099   30.855053
H   90.804443   50.398106   33.821053
H   42.961750   10.618006   36.303741
H   87.221451   34.203312   57.945526
H   71.953316   67.595276   46.258644
H   94.628174   78.929642   78.745010
H   14.810684   47.593361   67.218689
H    3.387871    4.263662   24.985764
H   94.669220   62.691750    3.729010
H   40.634689   34.418831   11.047420
H   10.333290   70.966637    7.920105
H   40.207520   32.087696   39.996605
H   55.641766   12.952633    1.413440
H   19.880196   54.763687   39.623848
H    7.811295   70.794220   94.349518
H   82.909599   84.590698   13.684447
H   44.379608   32.919147   27.723108
H   18.372978   51.429985   11.046994
H   56.785645   20.172672   46.639996
H   37.283745   67.173515   42.051666
H   48.744125   84.873161   67.143127
H   89.697884   43.531567   85.168427
H   72.378349   60.471832   67.842354
H   25.851112   90.550194   32.327930
H   94.373581   29.425982   60.170666
H   57.132290   51.832890   36.019653
H   41.191071   39.891575   97.403931
H   11.517812   11.452847   66.915291
H   80.820030   45.324959   30.174585
H    1.351245   36.645535   48.629383
H   38.524231   30.425549    5.396231
H   13.965604   80.738823   43.602821
H   64.726723   10.618356   49.883911
H   31.254982   95.456833   29.269623
H   15.163301   38.598545   78.680527
H   91.042458   84.927368   45.344540
H   69.516098   57.104321   85.620354
H   70.349899   97.837616   87.744247
H   92.239983   31.721031   98.433754
H   82.471611   75.949646   14.061249
H   18.843044   56.428490   63.889778
H   71.233093   85.811783    5.265584
H   45.768147   97.957649   99.492844
H   60.007282   86.777176   83.328850
H   89.422943   63.419949   26.985109
H    7.098232   90.151329   56.921352
H   20.662605   45.500053   96.747650
H   43.290573   85.270569   61.366402
H   38.553429   18.863384   85.037682
H   23.101839   75.470329   21.051744
H   34.185356   70.752220   86.512276
H   27.550508   76.880722   40.369099
