100
TIME:    6.738, STEP:  6738
H   61.658768    4.114045   92.977188
H   14.388977   69.987526    2.957267
H   95.588654   58.662544   44.248981
H   82.607559   55.045074   70.831299
H   34.819397   12.837751   83.010864
H   23.530392   93.908318   46.033176
H   99.832443   16.319012   17.373529
H   90.292778   71.523804   89.532845
H   87.994972   38.462234   75.954506
H   90.720741   13.132311   71.537697
H   73.502686   37.360462   90.711266
H   98.668381   61.431736   13.310993
H   14.100998   54.129391   55.499931
H   21.455502   84.307472   70.005745
H   62.445747   68.161461   26.872387
H   30.604145   22.399025   73.728027
H   82.277168   27.637310   86.775063
H   45.156376   66.967987   65.949745
H   50.210705   61.022758   18.346546
H   10.985405   62.720226   75.086998
H   64.434250   85.428070   74.360405
H    8.358963   53.028778   45.475327
H   95.780190   39.822502   39.569138
H   93.000481   17.434298    6.650506
H   88.595284   51.803650   86.301552
H   15.830717   27.467102   56.805069
H   81.054024   62.388451   33.660259
H   64.007797   70.946770   89.494919
H   57.682274   60.415997   38.662567
H   59.357807   24.074577   19.040195
H   81.238747   26.265388   76.289894
H   91.198792   66.344788   75.493660
H   44.973042   75.498344    4.809208
H   62.798409   56.225204   87.890625
H   13.265934   49.508888   34.996834
H   58.360378   13.177651   98.242256
H   26.061211   57.775513   39.393284
H   85.498451   35.644588   97.924355
H   60.661198   34.605705   91.350357
H   28.549484   81.394562   68.167343
H   74.757187   87.380531    1.089992
H   32.372131   68.026215   23.947300
H   69.274506    3.907208   88.167015
H   49.098751   25.739767   39.541573
H   72.183403   66.042770   32.699528
H   91.149864   91.433884   10.535093
H   94.375290   91.272842   90.142693
H   56.599262   64.769196   85.487198
H   61.985519   74.408241   75.693680
H   67.204834   33.290104   12.410586
H   43.038929   19.133158   24.455215
H   32.592922   38.503288   31.728615
H   48.639622   61.077942   11.535673
H   20.656395   97.263931   29.144917
H    4.304953   49.091469   57.659962
H    1.987930    5.446001   63.249374
H   23.412203   95.124062   96.827217
H   24.330137   40.566841   40.000839
H   21.689079   23.468533   94.207375
H   14.381071   45.693798   71.965843
H   84.738579   65.221573   89.048660
H   59.773140   65.225723   90.480316
H   31.502886   47.494301   71.425568
H    5.725600   78.467834   44.204273
H   99.764526   22.691002   23.049791
H   87.421570    7.307272   44.586990
H   46.966415   81.311676   92.372208
H   14.926186    2.890158   88.317963
H   92.722389   65.636627   37.637356
H   66.892784   87.043877   87.544830
H    8.070011   36.948044   81.322945
H   18.388494   27.904053   49.947243
H   67.660965   85.017517   88.985413
H   81.878624   22.971771    2.805037
H   87.036980   38.247784   12.184002
H   84.948067   39.415432   42.547295
H   78.736908   42.610073   10.240976
H   48.543819   10.138536   86.554085
H   84.624626   33.727093   92.856133
H   69.087204   41.969276   40.436394
H   42.725105   98.989365   82.703796
H   46.910591   88.167709   23.303707
H   44.069305   19.801184   71.637070
H   13.713704   88.744164   48.004383
H   24.244654   27.419189   94.578941
H   96.213425   56.553902    9.690425
H   17.170580   13.445237   44.837257
H   64.394585   65.893433   25.715271
H   95.514755   19.011259   73.082649
H   70.609756   32.056499   65.081787
H   99.769341   37.264465   75.756027
H   76.842667    2.241729   61.908241
H   17.372105   29.692745   40.064461
H   98.468941   21.959436   81.132019
H   40.097054   46.181145   70.918427
H   50.452774   29.654799   19.422714
H   27.771345   54.359650   49.680939
H   25.271425   19.855904   43.615807
H   87.730400   65.898521   80.659264
H   57.732967    5.727445   48.648067
