100
TIME:    5.380, STEP:  5380
H   53.494789   28.647976   94.220474
H   51.892342   96.397125   17.331337
H   72.235596   60.962646   60.194126
H   82.379623   10.993958   45.267296
H   46.982880    3.988193   19.831135
H   44.593731   95.379539   11.545391
H   71.003151   24.620708   11.176087
H   97.028900   54.039501   14.219600
H   21.377266   69.028305   61.436417
H   27.818388   93.632195   18.363951
H   99.820541   82.718643   21.521004
H   50.502754   93.362419    9.975035
H    0.758035   36.251717   90.437920
H   88.695747   88.493202   66.661552
H   45.940254   89.464432   92.160309
H   85.205261   41.174637   86.453827
H   91.479439   37.815647   63.150970
H   16.115286   33.045956   13.027430
H   29.063759    4.049264   46.800465
H   47.569099   91.564003   82.628059
H   45.019890   20.621094   11.222244
H   78.166183   51.226013   61.121582
H   13.912978   50.867027   78.421829
H   19.178074    1.188692    7.507036
H   37.163727   59.499855   76.272377
H   22.021246   67.613953   84.506714
H   98.155121   18.836258    6.712865
H   78.592628    7.559898   44.607811
H   28.154228   37.207371    2.857390
H    7.286868   57.684746   11.083355
H   27.791553    4.491036   83.730461
H    5.453775    3.870368    1.210525
H   49.317738   74.856056   82.469841
H    5.418832   80.677879   45.099754
H   47.039566   52.233383   52.331635
H   40.311497    6.813105    2.512129
H   95.811279    7.507687   32.388165
H   41.626362   60.499950    2.094114
H   17.979961   64.195915   22.950155
H   56.456875    8.525326   61.322697
H   67.566818   40.783188   69.096169
H   48.096733   53.316147   55.552906
H   57.581928   95.762207   90.077126
H   35.812283    2.945901    6.764349
H   89.980537   19.625343   16.491598
H    8.677153   65.532089    5.018012
H   83.765915   17.420624   77.108910
H   56.526737   50.782227    1.461865
H   22.293610   86.878357   29.863091
H   38.712521   12.618391    7.380782
H   43.134159   50.239395   10.140824
H   66.590401   64.516602   20.874565
H   20.468830   53.203796   90.407005
H   52.101173   19.422371   69.221031
H   12.431190   30.082163   46.107761
H    0.296485    6.874485    9.478912
H   37.320190   34.309288   67.670204
H   25.449448   68.813026   74.978622
H   14.586443   66.087364   98.457237
H    3.995239   41.313221   10.590584
H   99.074707   28.377522   94.929314
H    7.970502   77.865799   51.927589
H   39.308590   40.161911   64.547699
H   12.474105   71.070282   81.073273
H   45.864586   31.152084   96.584618
H   70.844109   74.817375   64.290916
H   55.921173   34.363445   26.809174
H    8.732396   25.225595   23.397711
H   25.040220   63.213844   22.807976
H   39.383987   18.740166   90.404388
H   51.193718   29.345367   97.609993
H   30.361832   72.973175   50.520828
H   56.205444   52.188202   23.804436
H   11.775661    8.919235   83.492516
H   21.563135   36.310329    9.238251
H   52.846962   52.381119   33.923992
H   55.424747   60.244488   86.196327
H   84.742508   98.934898   11.556117
H   19.504230   37.715969   77.708763
H   35.681511   15.944247   57.429413
H   16.149866   84.940231    1.539440
H   44.995049   79.360962   36.904129
H   58.173058   97.091980   42.308033
H   20.285711   72.537277   72.036469
H   90.367363   12.361981   26.221626
H   27.470127    6.669677   15.386916
H   26.472769   12.183105   80.082642
H   42.554192   74.561218   39.795486
H   67.333603   94.622887   84.189339
H   90.674225   87.927414   16.539946
H   44.194450   63.934429   47.077557
H   76.364418    0.107160   36.037529
H   30.321718   88.946907   35.048237
H   67.223396   39.571484   89.564339
H   63.574440   67.822868   39.711948
H   38.287552   83.281647   89.564774
H   35.562889   76.427925   27.780563
H   26.613104   62.045166   69.941231
H   52.422241   60.041363   94.405037
H   73.382629   40.574360   79.468521
