100
TIME:    6.389, STEP:  6389
H   85.260574   36.118248   93.296707
H   24.026470   51.075504   80.952858
H   89.587021   33.553673   48.346813
H   82.548981   69.423431   89.959839
H   37.945358   84.863953   92.473953
H   28.943577   94.286415   11.469994
H   18.123154   92.752983   90.081200
H   17.723495   41.331257   21.576740
H   96.574059   72.017059   97.921440
H    0.253093    8.120522   57.872929
H    5.965805   23.317602   24.329018
H   11.989365   43.938068   38.152596
H   36.371475   75.234871   90.178398
H   38.735344   85.383186   43.446323
H   58.206795   99.335869   43.655125
H   44.636490   52.923744    2.697843
H   10.341762    4.554391   55.004219
H   37.692944   83.950424   78.048866
H   44.776218   46.380798   99.960770
H   20.387253   70.132607   51.325432
H   85.144409   20.171932   83.834145
H   74.899994   52.565475   75.195923
H    0.439886   42.660896   49.554108
H   25.427406   13.259249   32.570408
H    1.077762   79.480499   83.724098
H   17.421656   37.784904   89.624413
H   11.147903   76.894913   26.734686
H   93.456802   54.656624   77.960281
H   50.093697   28.751797   55.160400
H   45.975285   32.712242   91.296127
H   67.504753   94.969887    3.901637
H   69.162628   75.988937    7.802287
H   20.389343    1.033197   73.368530
H   48.052605   88.209061    2.593630
H   21.951736   75.933113   13.762202
H   28.022219   85.842400   99.339272
H   92.587379   70.556274   11.893447
H   99.924736   42.032307   73.294762
H   75.391632   42.210258   25.170519
H   61.420147   14.066240   40.707745
H   98.609283   75.403893   92.867775
H   61.783859   66.657608    6.130156
H   66.271027    1.813533   62.957069
H   71.383423   19.881918    5.418748
H    2.457718   79.814041    2.833850
H   95.655083   84.777237    9.117228
H   91.648727   72.293411   86.793068
H   56.580624   61.174606   63.893040
H   51.784874    3.313770   89.614059
H   59.878696   27.977091   36.812881
H   43.062893   52.826950   20.776752
H   15.627853   70.888641   54.638130
H   41.399853   59.054321   31.805162
H   28.737564    2.957747   13.745429
H   32.093742   18.506096   54.691097
H    1.553251    5.813115   75.130157
H    1.287732    5.194514   63.634514
H   50.317291   73.525230   48.989975
H   94.164230    8.720395   20.999367
H   37.410454   18.867512   81.892235
H   62.723713   81.453140   16.259823
H   72.159828   68.474167    6.270775
H    7.809215   71.309120   95.357544
H   81.761276   76.566696   53.680676
H   85.913376   50.565929   90.548439
H    8.860775   24.656822   23.951384
H   74.966934   69.244507   75.522903
H   39.033928   82.930702   71.633743
H   75.329903   90.713547   59.527073
H   59.822334   69.491631   88.279724
H   19.152851   60.693634   85.508644
H   47.164478   39.486618   24.394104
H   90.416046    2.281685   97.931946
H   89.563057   45.059071   23.540575
H   70.208977   37.749866   85.727310
H   76.699150   17.047325   66.029510
H   47.040615   72.817162    4.051414
H   32.147167   32.958908   67.281761
H   67.887154   34.752216   88.963326
H   86.202774   60.980659   70.503136
H   35.895386   95.378799   61.844532
H   20.722769   85.904449   52.500156
H   21.993202   13.964868   38.399712
H   89.702614   58.879784   79.880394
H   41.238350   49.250328   28.410385
H    4.245239   43.733200   85.454666
H   93.861580   38.820442   28.195639
H   58.781700   93.819397   29.333824
H   88.272324   38.442451   75.937019
H    1.464736   46.416218   52.607002
H   85.486839   18.419872   68.385788
H   51.020199   75.993317   55.259583
H   95.000809   19.220509   13.075755
H   64.738380    0.786427   57.599442
H   46.130638   77.442276   62.898502
H   21.626831   43.436493   37.448914
H   55.473442   34.331131   69.752060
H   25.945078    2.587322   50.621262
H    4.355954   64.391457    9.890816
H   36.056263   14.683212   82.268013
