200
TIME:    0.379, STEP:   379
H   13.742393   62.013683   17.716391
H   29.203197   34.907406   95.540024
H   15.224308   75.222160   52.194695
H   22.527998   78.598427   40.864880
H   13.734344   87.252182   51.660015
H   85.096680   49.042316   61.435078
H    5.373084   55.205505   52.341816
H    6.003539   94.888733   20.138420
H   93.073441   85.422371   44.328514
H    5.968148   72.951836   90.589745
H   17.038610   97.563545   97.354202
H   31.352585   45.732952   19.365341
H   14.585757   91.620995   55.594749
H   97.833618   53.793385   48.963833
H   12.910912   73.014618   42.636585
H   25.248802   20.239212   51.324482
H   90.746368   14.228556    8.683382
H   33.261417   89.849159   41.045723
H   69.650200   24.669645   44.530041
H   90.498474   77.795799   32.082394
H   59.753220   83.697014   19.472256
H   86.934532   54.127403   65.218178
H   90.842804   61.530815   45.800980
H   11.552405   89.326462   91.150223
H    9.288130   18.294397   40.450459
H   18.546030   68.504982    2.365705
H    1.587476   61.585835   54.670624
H   97.700226   75.863480    1.097017
H   16.923004   52.304756   37.524441
H   86.768166   24.487976   93.817657
H   13.180017   57.256474   16.364756
H   29.398384   66.764145   97.025314
H   23.764740   11.976506   74.876991
H   91.826164   63.729568   40.719872
H   41.317982   84.057419   33.161785
H   28.520786   46.752689   81.070389
H   90.254013   71.428886   86.998451
H   26.039476   48.350891    8.917734
H   47.925835   41.423225   47.521358
H   88.749718   39.116886   58.266693
H   80.545670   98.730629    6.137991
H   20.257921   40.192142   35.709560
H   74.199112   84.588806   55.489666
H   36.971603   69.984947   23.719627
H   33.526211   80.536034   49.380013
H   39.103725   10.221047   44.199600
H   82.593552   19.402271   99.226845
H   86.731812   65.548485   42.650650
H   92.455971   23.477306   61.266548
H   57.143188   18.428782   99.831703
H   74.901642   68.736771   22.360039
H   15.824557   38.090435   66.530174
H   55.925053   90.444351    9.746696
H   20.337851   85.117004   83.761566
H   71.315323   73.293617   86.277954
H    3.523773   68.925751   83.199829
H    5.033796   17.271461   48.163548
H   68.927292   61.810696    2.794662
H   25.248123   77.162613   10.488358
H   39.888428   95.208656   64.424675
H   49.969341   12.664478   38.175373
H   92.434135   16.754164   50.131439
H   75.276726   28.085953   80.195450
H   27.493876   65.350647    6.770950
H   73.582817   78.151260   23.613541
H   33.287212   21.961384   35.361801
H   80.983009   20.230009   88.706917
H   96.563026   91.765953   90.023514
H   21.466736    7.731633   60.220459
H   44.436829   44.052666   50.975170
H   58.404186   78.996254   76.999405
H   28.233934   20.168194   43.791832
H   81.905411   28.066158   94.841286
H   12.393770    5.909387   64.618996
H   80.837570    3.121666   61.076942
H   56.827148   14.169254   61.969166
H   94.840073   35.124836   70.179436
H   21.406847    8.501053   43.214439
H   12.587334   35.886230   31.859867
H   66.181633   89.891731   87.669647
H   49.267582   27.752808   99.070175
H   32.748337   66.090683   83.560143
H   10.457407   15.191014   86.212753
H   20.141285   66.404839   98.381927
H   33.958401    0.793708   53.843021
H   28.583323   80.910934   24.889286
H   42.085041    3.073754    2.089988
H   74.175560   13.370961   16.684965
H   69.940048   72.395592   77.671448
H   22.747921   92.277512   53.336285
H   35.415981   36.092735   80.136223
H   83.087204   89.755020    1.400810
H   53.862808   15.294436   91.771034
H   53.794861   89.439819   72.921356
H   28.647039   55.045959   73.728973
H   63.515755   30.817051   22.526173
H   81.191139    9.471460    4.315602
H    3.073498   30.598654   49.909634
H   33.868263   68.385612   53.373844
H   69.621277    0.186191   27.284342
H   16.067839   84.269592   75.485115
H   95.741112   78.759514   65.097870
H   26.060736   32.090225   32.445328
H   28.555107   68.196121   95.682198
H   25.154480   25.646046   29.594070
H   92.925964   19.967480   37.383099
H   72.242859   31.822721   55.612335
H   63.932457   39.611271   13.366733
H   76.329041   38.335079    5.853947
H    8.831908   26.122351    6.217566
H   49.023350   94.858887    0.893647
H   91.575294   66.840759   92.094467
H   54.679844   81.887657   90.911926
H   62.753319   16.400679   71.369537
H   59.211693   87.756699   21.898932
H    8.365822    1.730896   85.205040
H   26.859982   10.399969   85.800522
H   40.065891   33.838203   31.200035
H   24.141174   62.932262   76.669830
H   74.450851   49.449093   54.528004
H   42.005318   22.683117   82.965042
H   12.291519   24.187222   52.276867
H   35.587532   15.960200   28.152584
H    2.029349   62.316692   11.778188
H   72.757149    5.510506   88.215927
H   52.814800   66.155563   22.847561
H   91.931572   49.838943   65.686584
H   72.388260   88.660149   36.176533
H   94.178284   47.452194   81.722595
H   74.482460   23.490519   68.869675
H   54.219986   80.222626    8.723316
H   76.364700   87.430008   12.604947
H   91.983864   89.357452   98.409126
H   94.104820   16.566874   51.418186
H   11.292828   98.856796   50.029579
H   58.655922    1.448457   81.633804
H   69.122841   86.918724   62.258331
H   92.403969   59.880913   81.002106
H   49.946457   46.277504   71.517212
H   43.523239    2.423319   91.595200
H   57.499149   58.981022   19.400009
H   50.839325   45.234211   49.487206
H   50.537144   59.319412   94.695839
H   51.343803   21.496073   80.427803
H   46.835590   65.157143   53.613789
H   51.033115   64.370758   23.188969
H   48.018761   96.169075   46.286629
H   38.856964   68.244583   68.027489
H   68.901215   58.988842   96.562645
H   13.892823   90.192352   84.795250
H   71.320778   63.670589   50.294846
H   39.638599    3.263644   43.796383
H   82.633049   26.641148   98.584953
H   13.584342    4.333283   72.517609
H   19.124413   57.549911   63.268154
H   67.628448   43.873562   58.337368
H   60.766247   65.051964   82.401657
H   48.022282   34.429695   12.980619
H    6.020061    1.210584   97.450089
H   62.121292   51.272339   83.575317
H   55.321323   78.762299   79.720093
H   37.077877   22.335966   34.339794
H   71.202614   28.509645   37.174255
H   16.376820   24.263062   65.251587
H   57.623276   26.804873   11.190318
H   14.308537   60.016541   61.541985
H   72.506317   95.318733   53.695244
H   23.753639   37.256771   53.760548
H   95.961685   27.718178   36.528713
H   32.816250    9.410761   88.838074
H   76.709534    7.286851   35.964409
H   41.361061   60.284283   57.884960
H   40.358624   71.481583   86.512955
H   69.514328   71.213028   77.464211
H   64.977386   93.990906   92.695648
H    5.198920   48.411674   23.420101
H   33.989799   57.263309   92.722610
H    2.961922    9.333420   66.657578
H   72.046822   18.148264   67.509117
H   79.688400   55.946144   88.345840
H   78.880074   90.170517   38.487469
H   22.031326   30.275723   74.690590
H   59.235779   90.021530    8.821109
H   54.507793   25.477654   82.303947
H   87.320488   82.305519   77.824173
H    2.170351   37.396667   84.649879
H   36.192047    2.143604    2.345026
H   83.743172   73.112373   30.390200
H    2.593039   61.793259   68.132019
H   52.141239   57.517185   67.459183
H   54.460503   26.425549   78.308846
H   46.513424   88.706650   22.853907
H    7.188009   20.830885   60.990322
H   32.675053   69.078529   36.114555
H   80.124542   48.046722   21.361601
H   75.667496   10.724524   27.662004
H   10.385228   89.349586    8.158368
H   24.869835   94.643616   43.046627
H   10.059713   12.000828   71.800499
H    6.557986   30.283556   95.817650
