100
TIME:    0.079, STEP:    79
H   11.980182   14.776515   99.073685
H   99.072655    9.028011   82.983826
H   81.121765   79.587502   22.412277
H   81.489868   29.396051   35.832916
H   94.463455   79.089722   63.563271
H   26.791302    1.127670   86.569145
H   48.829365   66.673347   96.630386
H   13.677053   95.437012    0.939846
H   51.686028   78.697815   95.113853
H   72.681664   17.521526   10.782228
H   92.906647   69.421265   32.140106
H   52.826725   27.650352   87.306068
H   38.237183   56.927795   17.277187
H   51.170444    4.833692   63.253242
H   81.463890   62.964523   46.975636
H   98.345886    4.828063   26.482410
H   17.714560   87.221504   80.547554
H    2.832980   90.858749   96.807419
H   46.494453   81.667770   67.523178
H   90.510933    3.875921   21.577555
H   59.588577   48.353226   55.097008
H   69.922829   44.204208   12.528591
H   84.689262   93.979713   30.090809
H   11.701618   37.629246    1.206890
H   26.757223   79.907707   37.141617
H   46.291965   25.260296   81.765831
H   55.267208   39.193340    1.534015
H   25.874786   60.126629   69.387497
H   12.888886   56.259365   53.437683
H    4.023271   88.884415   89.669212
H   19.209383   29.126581    3.160633
H   70.745483   50.327454   91.950676
H   75.923157   62.702171    4.913899
H   81.440025   66.482819   68.423256
H   78.808159   52.948410   29.539124
H   79.423790   90.691704   20.372503
H   87.377220    1.640930   14.689390
H   60.723106   57.508320   28.016329
H   47.169552   78.821571   34.555046
H   55.751850    4.787056   44.249847
H   29.842861   58.889584   44.199322
H   24.521103   15.402065    6.511895
H   11.922212   63.973675    7.179848
H   74.314941   14.095796   88.455704
H   49.802307   28.774971   62.867760
H   76.942482   64.689262   83.628090
H   36.914234   30.002209   28.298285
H   56.243633   96.195312   73.466019
H   67.336479   25.906483   41.323082
H   27.546667   31.951824   78.139175
H   43.533596   62.017975   54.258503
H    8.972638   56.408997   68.876816
H   10.518122   22.466797   98.281319
H   74.855240    5.913334   35.301777
H   34.470505   65.431320    1.076535
H   93.665085   12.449345   89.937454
H    1.260943   87.267296   63.500999
H   20.177420   69.425941   11.520103
H   96.508293   42.106979    5.418181
H   53.809380   33.860107   61.353989
H   64.684128   74.896103    8.236936
H   96.107269   27.210037   91.779648
H   79.591972    1.765910   28.138397
H   48.464531   42.224220   24.995970
H   35.457138   54.535305    2.917931
H   96.492409   38.345844   50.856960
H   81.230095   51.092693   70.876389
H   74.908653   22.055412   69.979256
H   60.841370   44.109886   55.278828
H   31.987209   52.117973    1.564640
H   19.524240   90.029091   61.199924
H   67.452171   48.903679   62.406796
H    1.840356   14.399548   59.723995
H   28.452110   44.380848   98.513405
H   65.979050   28.756105    7.386469
H   27.525473   12.635324   90.614120
H   74.128265   19.696964   92.429749
H   35.691895   45.554539   18.802834
H   65.341194   53.268497   18.569332
H   95.651138    4.651259   14.115149
H   12.428072   30.098249   84.710434
H   47.251606   44.743484   80.174622
H   22.794556    8.575948   37.424133
H   55.605179   18.921726   56.214424
H   48.484337   43.943954   40.094032
H   49.480473   11.950812   47.270908
H   72.430946   97.608971   27.310223
H   57.226913   98.969261   94.916893
H   57.322701   89.773933   27.554684
H   59.350227    6.036629   27.035955
H   27.255587   77.696579   35.130077
H   84.131828    1.448303   35.030197
H   90.353111   29.998564   25.026472
H   54.864151   18.024126   32.145611
H   55.225880   42.653675   17.902695
H    0.446629   92.611992   63.368462
H   56.331596   72.214058   32.645531
H    7.155444   16.910309   54.771156
H    4.948675   37.190830   38.434185
H   44.147686   76.673561   90.077011
