100
TIME:    2.775, STEP:  2775
H   29.659954   67.539696   96.605423
H   24.078636   55.202011   53.046131
H   27.454527   73.548767   90.763695
H   81.942383   18.320288   88.055969
H   70.315628   95.186005   90.463654
H   84.988411   98.201729   53.563976
H    7.533343   48.719688    7.461548
H    1.776771   28.674791   53.403408
H   85.413139   19.488586   25.410278
H   99.008522   56.228249   16.354944
H   42.131287   77.900757   72.446762
H   49.928017   62.787079   95.401985
H   66.743294   93.815872   49.316154
H   17.679237   96.522530   68.419792
H   14.254620   22.153009   17.380129
H   89.947159   69.017426    2.691843
H    0.958059   65.513962   26.007547
H   60.445351   59.752403    3.339420
H   88.487465   94.766754    9.561213
H   17.756401   46.883701    5.267519
H   99.604294   79.957550   81.924057
H   28.422302   47.767838   82.961411
H   48.693779   72.053322   52.954681
H   61.213943   69.963470    0.977221
H   30.333302   66.089325   57.036003
H   33.934872   44.922550   29.071047
H   22.787098   27.123087   55.033276
H   98.395988   85.967339   58.500523
H   71.510376    0.862017   25.996023
H    7.399695   22.159073    3.993513
H   25.268221   70.894424   89.829781
H   40.972298   75.840157   42.368401
H   65.826019   65.450066   47.790871
H   95.351021   19.410446   54.844391
H   11.792075   49.151459   93.707344
H   13.829736    2.474980   11.100743
H   45.957375    2.908460   27.124327
H   49.294289    8.163654   18.266048
H   27.938881   20.954023   75.394226
H    1.819830   52.397575   56.366299
H   45.599659   51.399044    7.723956
H   82.219963   36.401939   33.172394
H   35.143536   80.140793    1.915269
H    2.157175   59.281479   52.058266
H   15.945272   22.404453   93.574806
H   42.286274   15.845661   94.437080
H   63.413784   75.751434   52.097244
H   56.387615   23.954535   40.279182
H   46.144478    2.624828   33.777802
H   84.083122   72.982170   89.577789
H   43.332905    1.734785   82.675995
H   39.991886    6.239533   91.887749
H   66.443413   38.099121   41.701988
H   12.432362   61.934082   54.269257
H   19.842186    1.775986   23.952284
H   97.038376    9.615559   98.159256
H   72.173729    9.475482   19.913170
H   19.424164   14.822968   42.078812
H    9.135857   56.019466   98.444618
H   75.896759   41.084133   84.682991
H   34.750282   49.520634   98.035690
H    0.424383    2.113197   69.796097
H   62.460514   17.919004   43.182541
H   33.593353   56.889809   51.801556
H   42.466999   39.209393   53.992142
H   30.872444    4.319445   10.264677
H   64.925087   44.300945    1.038537
H   88.677422   76.242188   98.863647
H   95.206871   50.392525   86.189308
H   86.606018   87.717354   95.889771
H   33.914574    6.588370   28.861477
H   45.155434   59.428268   59.795341
H   26.056765   81.043236   90.594963
H   69.123009   73.772888   38.282051
H   95.966087   32.593784   11.761589
H   91.259529   85.424431    9.207804
H   18.906622   86.028458   40.127064
H   62.354870   69.271370   67.694275
H   94.584915   45.367680   48.641640
H   63.434120   57.822849   81.852524
H   65.186356   57.990307   45.843662
H   49.535973   62.350418   54.733864
H   93.374008   53.576080   94.205017
H   41.065807   49.621918    9.964172
H   17.209732   75.307266   78.747353
H   87.423950   10.983963   34.487743
H   52.490700    1.587814   55.866043
H    0.627035   83.121292   66.885170
H   13.271574   39.664162    5.496752
H   20.990952   95.102982   23.417854
H   37.587067   23.274220   92.064651
H   83.612976    4.202785   86.399574
H   63.333363   10.782585   33.597298
H   15.441589   81.557503   13.923051
H    8.611710    1.161188   79.853722
H   23.125244   86.149971   24.116806
H   42.335617   26.931927   77.596687
H   17.053434   39.865143   11.633947
H   76.518913   48.812229   12.602081
H   11.578171    7.425051   30.413786
