100
TIME:    1.029, STEP:  1029
H   47.735023   27.656685   98.203934
H   72.646721   60.537395   42.909206
H   97.444092   47.934139   11.257721
H   81.649323   90.254539   83.760612
H   85.954391   55.236412   37.804146
H   12.059895    0.093730   80.651207
H   99.041344   30.820616   70.921913
H   39.008926   77.623123   13.714121
H   28.333214   87.359161   35.314995
H   46.719597   31.158497   47.985825
H    4.539948    7.646601   40.630951
H   16.565357   75.269218   19.683592
H   77.807022   99.451271   22.854940
H    4.131870    1.904631   35.547665
H   93.017082   78.110107    1.308337
H   60.150467   21.732708   47.624496
H   41.336464   50.046402   67.043266
H   23.133446   44.660477   63.872849
H   61.287468   21.520594   17.574915
H   64.795296   83.957916   86.388496
H    3.214289   53.777870   29.315762
H   61.015064   45.458099   31.637913
H   72.005394   86.253426    2.908340
H   23.436310   49.022984   30.652061
H   92.781609    4.567059   44.154671
H   41.940746   96.949188   92.725006
H   73.347672   99.701797   20.385557
H   45.716644    4.469537    0.785581
H   33.545746   42.450657    8.531437
H   40.449154   65.372147   65.191124
H   56.579685   14.319208   27.985386
H   30.728735   24.082718    4.004398
H   42.839336   93.196144   90.497398
H   21.579750   79.421059   28.400541
H   55.194420   81.135567   87.387741
H   62.022522   65.317886   17.103689
H   78.493095   66.851906   89.546577
H   21.461098   40.120548   95.055748
H    4.459455   58.541878   43.502487
H   66.272209   15.851458   18.993288
H   64.919281   91.489616   66.587326
H   39.140526   58.041580   51.144230
H   20.104216   69.670547   75.798286
H   13.650908   30.015863   81.343880
H   67.396400   91.292221   44.163101
H   64.809456   82.548256   87.353523
H   46.945362   81.249847   36.415962
H   56.294369    5.977949   32.246593
H   95.110527   47.226875    3.425822
H   47.471210   46.411434   11.695908
H   43.466114   70.300179   64.266479
H   55.140114   68.256332    6.509009
H   30.224726   27.975220   43.107368
H   52.861362   90.415184   77.223770
H   58.842216   48.712902    9.137875
H   94.853745   11.450516   57.597214
H   61.484390   59.855644   53.853935
H   49.436951   79.711189   87.050247
H   71.431175   82.245987   32.486156
H   91.115707    6.879416   34.342369
H   24.610983   30.718216   34.166679
H   62.389923   18.367569   48.796890
H   44.029617   36.983879   62.964699
H   13.698427   47.391991   99.200829
H   73.166328   78.660057   91.389915
H   38.132118   91.118507    7.028150
H    5.009634   83.937439   16.742458
H    9.285756   76.386520   15.394752
H    8.186357   75.848953   95.694618
H   51.230453   99.898094   99.566345
H   89.356255   25.388140   49.806187
H   89.121414   17.375206   31.959787
H   39.899506   67.406227   35.363720
H    7.542581   84.262772   42.052071
H   11.784686   30.107843   79.402885
H   49.986790   73.522850   26.691353
H   60.382381   37.359734    9.241865
H   80.324615   83.437370   71.269043
H   10.874231   50.488132   29.162174
H   49.061478   52.913658   32.271820
H   31.018650   39.927135   41.489117
H   18.529453   50.947708    0.732672
H   82.904427   24.431631   27.906925
H   20.955381    0.214455   69.442268
H    2.225131   84.519547   48.002403
H   27.608677   46.852299   13.240273
H   35.879311   28.536247   72.609756
H   72.520035   22.909973   85.045219
H   77.037056   36.878578   19.781284
H   75.359909   66.942352   60.999203
H   66.133461   28.995214   55.192333
H   54.422535   72.896797   53.128265
H   51.306282   58.461418   98.520775
H   46.685013   75.650032   96.199165
H   38.802082   57.558929   39.731102
H   78.912750   55.096733   14.299948
H   80.925339   26.732450   78.010239
H   10.643289   24.998993   39.572258
H   59.692833   41.285908   58.855854
H    3.145822   52.273563   98.578194
