100
TIME:    0.879, STEP:   879
H   57.879066   41.412483   98.341263
H   76.819237   52.404079   33.447231
H   94.866882   37.142361   13.018967
H   81.624146   96.434349   91.982048
H   87.297928   43.213249   41.871376
H   14.385906    0.256978   65.796776
H    6.902801   20.691450   59.191715
H   50.798630   64.645523   27.487038
H   32.020500    1.781039   44.757515
H   50.818871   29.005291   42.111572
H   18.492584    1.611156   55.079117
H   22.290836   67.750450   30.360357
H   87.349106    8.526680   37.763512
H   11.558800    2.367108   24.132183
H   91.192894   91.508850    8.518950
H   66.181503   34.853359   60.075668
H   53.396248   40.126663   53.385887
H   19.927956   51.954941   69.073044
H   58.951729   15.227489    9.672770
H   68.855659   87.102753   76.155190
H   12.115433   68.710907   33.386803
H   46.632130   45.260117   44.410664
H   74.008110   87.473366    7.200161
H   37.372925   47.223972   41.792885
H   98.146599   16.463192   43.048027
H   42.628536    1.419000    6.784853
H   86.281784    5.937261   17.408949
H   58.372665   97.467941   95.827927
H   30.284180   28.841475   15.621624
H   34.697353   69.084610   53.266384
H   50.679111    0.867328   39.855003
H   21.257605   28.226624   17.890617
H   32.273006    4.170858   76.984215
H   15.241979   93.167702   34.719643
H   58.922905   92.474373   78.253067
H   48.980835   53.535046   17.619818
H   64.105583   72.345070   77.727119
H   27.660362   42.865986   84.469963
H   11.203096   61.743935   57.879700
H   80.401085   29.893934    7.191568
H   75.170898   86.342064   63.053082
H   52.621666   51.309021   44.096958
H   18.812178   68.771042   64.963020
H   23.229040   27.502169   66.677132
H   80.408333   97.211105   31.326292
H   66.725197   79.728325   86.765297
H   45.361500   73.158875   35.134224
H   56.286358    4.433568   22.965437
H   90.725151   59.649437    9.409644
H   44.325230   44.128338   22.186707
H   43.477558   84.781532   62.684910
H   47.850227   82.174637   16.356628
H   27.113077   27.105469   51.819756
H   56.334644   92.861931   70.604507
H   70.783478   35.562496    7.865005
H   94.666061   11.608158   62.703568
H   51.975494   64.183800   39.587730
H   60.606384   93.876686   90.913773
H   59.600700   75.908249   44.002346
H    1.014748   95.349960   38.608727
H   15.148460   37.693390   45.861397
H   67.713715   19.763748   55.584381
H   33.854675   47.212608   73.255226
H    3.398113   46.576027    3.273558
H   67.213112   90.639732   77.421257
H   47.346901   98.575478   98.159203
H   17.044813   78.750977    9.500065
H   19.647423   67.808029    8.223884
H    0.710104   86.626999    5.102158
H   48.192047   92.354149   99.882202
H   94.119286   35.594753   51.605198
H    1.490082   22.353386   20.977465
H   49.679626   74.826576   39.210079
H   10.843915   93.754501   50.967018
H    4.552810   29.894411   68.032036
H   46.440266   63.909805   36.784199
H   46.762768   50.360222    6.587694
H   73.277344   93.244957   62.985668
H    3.683995   50.927586   27.489620
H   56.417740   61.083595   45.194489
H   28.083241   38.375317   32.523815
H    7.274761   49.968094   13.276251
H   73.412697   21.928236   13.620169
H   10.636393   87.378761   83.143135
H    9.529133   93.901413   62.543266
H   31.061359   41.341969    2.823582
H   25.861151   39.442467   65.457199
H   70.105331   34.918968   86.603905
H   73.924263   45.230476   21.008663
H   88.621323   73.115295   55.636501
H   59.994846   20.895658   52.024609
H   43.324055   61.615211   50.270676
H   41.681801   53.967323   86.916466
H   32.186493   66.551979   86.084877
H   41.395313   70.994843   36.284142
H   66.523376   61.020195   22.047661
H   92.831772   18.124205   86.636795
H   10.092542   23.721832   41.972084
H   66.838524   40.639317   71.420998
H   93.830307   56.126789   13.025536
