100
TIME:    0.177, STEP:   177
H    5.352965    5.789557   98.983963
H   96.346611   14.341404   89.165649
H   82.805542   86.638130   21.261597
H   81.506317   25.358202   30.460939
H   93.585678   86.944855   60.906013
H   25.271641    1.021008   96.274040
H   43.693546   73.290321    4.294165
H    5.974447    3.915431   91.942192
H   49.277000   69.275543   88.945488
H   70.003471   18.928288   14.620073
H   83.790924   73.364532   22.700268
H   49.086079   32.562614   80.330208
H   32.003769   50.998688    7.536936
H   46.317997    4.531535   70.710686
H   82.655693   54.211426   42.264500
H   94.406754   96.255196   18.347065
H    9.835728   93.702400   89.470375
H    4.927114   86.093033   93.409958
H   48.020470   85.778519   72.686661
H   87.858162    1.820921   28.263315
H   53.773117   38.596741   52.437508
H   79.319679   44.333557    4.183871
H   83.380821   93.182686   27.286633
H    2.596307   38.804600   93.928864
H   23.252470   72.136314   37.865372
H   45.844852   22.337986   72.581322
H   46.816174   35.119228    3.478639
H   17.606186   64.700943   72.626450
H   15.019963   65.150780   48.805054
H    7.780927   86.458939   97.460045
H   23.064425   37.914818   95.405724
H   76.933289   47.620102   82.878319
H   82.825745   55.531914   13.742513
H   85.580681   57.501678   64.294563
H   76.372215   45.540390   35.506363
H   87.944359   98.389824   20.035299
H   96.775902   98.053078   22.412060
H   56.672920   55.714634   34.931629
H   42.763470   76.729561   25.161934
H   46.521732   95.612724   51.960678
H   23.145885   62.251904   46.508907
H   15.713425   19.800646   11.115926
H   12.766156   64.561356   14.258339
H   68.056854   15.738076   98.037979
H   41.301926   24.908340   71.253845
H   75.690865   66.531548   84.012398
H   37.949024   35.289059   29.135687
H   56.248867   97.204681   79.529709
H   70.201591   17.790409   37.413460
H   29.602041   33.443447   71.284439
H   43.529110   52.556076   55.286564
H   13.734990   47.314957   62.443588
H   12.550879   23.035034   92.589973
H   72.586777    4.314232   39.626362
H   26.668457   74.022171    1.908096
H   93.787704   12.346165   86.601303
H    7.473606   84.439568   72.821587
H   12.879763   60.171150    8.995747
H    4.237434   46.247635   97.894745
H   47.339699   41.392990   58.571869
H   70.865952   70.338242    0.596204
H   92.629059   26.297867   87.345901
H   86.238853   95.083061   21.415253
H   55.194405   42.757317   22.334974
H   39.347321   46.707836   12.044496
H   90.472084   33.473957   56.651485
H   73.367485   54.480434   75.607712
H   68.139153   27.660400   74.664223
H   65.725700   37.068230   49.132145
H   33.972305   57.047432    1.358561
H   16.412020   83.361275   60.024570
H   59.371670   45.651268   69.581703
H   95.450592    9.552334   57.211040
H   26.295052   38.178837   92.688972
H   70.704391   28.895548   14.815619
H   29.842535   18.916216   84.019577
H   83.025665   11.202938   94.164368
H   40.296112   39.146915   24.214920
H   70.038124   52.982136   19.662067
H   90.845047   99.313957    5.672499
H   14.345686   31.112478   90.567764
H   54.604298   45.383499   71.980042
H   28.995445   10.211686   46.758179
H   62.347015   27.307713   47.263191
H   43.711891   37.812973   30.594059
H   47.222477   15.552764   54.075550
H   78.976143   90.483574   31.983227
H   58.804520   91.123100   93.898552
H   59.356392   84.317360   26.752796
H   50.686104    2.004317   30.539213
H   31.266146   82.988663   37.199657
H   91.382835    8.818567   36.897156
H   96.641106   32.934959   32.608299
H   64.336494   23.968561   38.752865
H   53.531635   33.875156   20.154335
H    8.541107   88.741997   58.306664
H   48.552727   77.838112   27.009514
H    7.515172   17.744720   53.203270
H    0.280344   37.613270   30.225399
H   50.233807   74.156868   80.638290
