100
TIME:    8.089, STEP:  8089
H   70.296135   80.221367   91.740311
H   77.078293   43.195713   88.142593
H   18.813425   55.858826   28.387203
H   82.834320   99.382622   96.776436
H   22.714659   21.126270   46.378677
H    2.577277   92.444679   79.827187
H   29.026085    7.544932   23.023502
H   84.106842   88.403374   65.489662
H   54.784813    8.568400   90.913269
H   53.820564   32.531055   24.437046
H   47.835953   91.721222   60.575241
H   47.107826   29.150173   17.145199
H   27.941154   72.368774   21.244730
H   54.562111   80.143318   72.817268
H   78.854988   47.483475   61.899536
H   76.281845    4.235399   61.583282
H   73.637733   16.995907    9.761937
H   74.044189    1.228402   19.121780
H   71.251480   17.695942   89.522232
H   74.583084   34.034977   67.069344
H   84.264000   50.932407   37.694386
H   37.880650   54.822250   30.425186
H   77.742393   28.836393    0.913579
H   67.474075   33.596161    6.313860
H   40.274605   44.662598   96.279030
H    9.467083   87.639755   29.671192
H   64.556519    6.225866   60.469578
H   50.014900   34.006870   34.151306
H   87.058113   82.989517   74.800896
H   11.161751   90.636429   26.440575
H   34.408169   47.411621   69.403145
H   76.501732   29.021366   50.424812
H   40.135250   76.652794   26.517958
H   19.881382   32.414040   30.973742
H   79.642754   47.219200   17.192724
H   75.800751   18.994310   93.995644
H   55.638721    8.297945   45.846828
H   29.659557   10.917877   93.260185
H    3.631306    5.172720   60.428078
H    1.300444   54.918861   74.460999
H   82.425964   33.735504   32.917812
H   18.517220   73.324173   92.918449
H   80.901154   12.011339   85.750313
H   62.832653   48.416237   71.634186
H   54.994286   12.743109   48.307770
H   73.709892   17.199047   16.023737
H    4.932982   64.745491    3.111293
H   56.681332   78.684067   69.079033
H    1.482267   62.518028   21.799957
H   95.570557   53.853191   17.949207
H   42.946163   88.702477   38.697189
H   98.253479   13.139322   43.044495
H   76.660545   68.911499   33.075630
H   89.370209   75.226898   88.762161
H   96.736244   67.487076   69.147995
H    3.670599    4.024880   17.258148
H    9.060239   56.141808   25.318779
H   23.732038   12.980944    5.200185
H   28.236523   80.557747   90.493607
H   25.228554   49.536312   33.540184
H   69.960892    2.396437   83.713814
H   11.823524   52.650803   29.352337
H   23.222366   55.304352   78.783447
H   98.496452   85.827255    7.521129
H   53.390541   14.788996   48.862518
H    4.428806   40.145103   24.469166
H   38.573273   28.020653   57.599285
H   21.603371   80.155632   52.903580
H   60.058449   68.562386   52.905785
H   94.308128   54.932484   84.686966
H   65.170296   45.026588   65.119850
H    7.158351   83.013084   48.966030
H   79.572998   18.197386   54.349842
H   52.135838   37.467007   22.532438
H   52.126114   40.225826   14.614939
H   16.884523   26.001442   51.641579
H    1.436284   25.676865   34.200798
H   12.014953   21.803387   61.166409
H   49.409050   29.758778    7.929527
H    2.833649   68.373253   24.046516
H   69.170708   12.966775   63.451401
H   48.287987   96.928925   10.278774
H   29.521391   42.394810    0.297780
H    6.660111    4.352152   24.612293
H   58.463287   42.904697   63.615181
H   65.126572    6.175494    3.507825
H    7.400872   15.216265    9.258080
H   86.122398   57.785172   11.707634
H   23.554604   43.789284   62.033211
H   51.163044   76.473526   13.379913
H   55.057911   10.214734    4.286841
H   76.802986    3.849848   87.655067
H    3.974073   70.229820   44.539368
H   29.036718    3.923149   72.227638
H   16.737316   25.166138    1.963883
H   62.039825   76.306396   49.641624
H   20.535578   31.889664   71.982826
H   22.663675   86.703255   16.494322
H   23.371544   71.732460   67.499779
H   41.649685   71.054703   18.500744
