100
TIME:    3.091, STEP:  3091
H    8.290825   38.560814   96.316116
H   15.288486   72.335022   72.979355
H   32.886261   96.283447   87.055748
H   81.995422    5.300283   70.736145
H   67.485245   20.514782   81.895355
H   80.089485   97.859383   84.858116
H   90.971230   70.057777   32.173164
H   76.939789   56.011860   24.388363
H   77.645256   89.106262    5.518923
H   90.372719   60.765541   28.730036
H   12.737732   90.615784   42.008625
H   37.866341   78.626617   72.908394
H   46.643387   74.697525   17.908966
H    2.033109   95.548531   92.465996
H   18.098782   93.927017    2.189874
H   77.241776   41.378998   76.461281
H   75.547279   86.416367   54.774273
H   67.197105   44.385399   92.383972
H   93.410500    8.023105   26.208399
H    9.243553   40.174198   26.782251
H   80.852402   48.499084   73.346115
H   58.717529   48.187332   56.051071
H   44.474724   69.483315   43.913849
H   31.854141   73.753387   77.509544
H   19.032261   41.027939   59.367531
H   32.485928   35.508030   99.452324
H   95.538208   13.987267   61.303997
H   71.731560    0.717150   68.945763
H   78.381409   29.531401   11.059362
H   19.516045   14.338021   29.113815
H   37.705341   99.232010   64.828865
H   60.924812   67.107918   13.114677
H   88.083344   42.329643   76.258644
H    8.702924   90.451118   41.531464
H    3.936643   25.264374   12.949448
H   41.305019   27.298754   10.014638
H   76.265633   91.335922   52.023983
H   36.234505    2.380226   40.564358
H   14.599498   14.069731   44.771118
H   72.055084   22.813936   81.228127
H   24.003588   62.240810   15.168386
H   53.819695   50.585197   48.018646
H   37.865429   82.035751   24.740112
H   81.978134   64.577942   82.955284
H   88.534172    9.937454   20.616247
H   38.209461   21.872883   95.719673
H   65.883102   92.936249   55.132553
H   56.404491   27.208029   59.831490
H   55.380592   76.452446   21.172300
H   90.708244   77.789482   67.474762
H   43.308796   71.227341   86.007843
H   55.349247   76.917984   71.144463
H   72.996208   39.931396   23.348461
H    5.115314   56.777191   68.213837
H   94.682846   29.471451   26.638159
H   97.433762    9.283453   87.401871
H   92.208214    0.356959   49.967308
H   95.894279   84.980606   33.939651
H   34.057213   69.370972   74.186256
H   55.043610   65.373703   75.695198
H   54.683510   34.826267   73.396408
H   89.208977   99.171494   55.498093
H   83.908669   96.358452   21.511337
H   55.293762   58.608772   43.221203
H   55.010853   13.970613   83.420265
H   11.460110   88.610146   28.948044
H   39.572182   55.224682   16.295736
H   66.849236   94.314209   13.970275
H   10.956171   27.686775   66.371803
H   93.009338    3.610280   95.224365
H   23.879478   85.087852   25.070354
H   19.100363   48.940903   82.930664
H    5.452142   65.411034   82.494377
H   62.169369   53.775742   19.501228
H   11.201734   33.044621   35.717197
H   98.728462    5.676313   87.944458
H   47.598057   58.640289   45.715504
H   77.201126   48.608257   85.144287
H    9.738481   44.439487   52.168770
H   47.936928   40.611515   54.628769
H   71.367874   61.259472   64.730560
H   73.246124   64.414139   28.310354
H   13.366327   58.851105   24.302250
H   62.804790   76.662445   81.101532
H    1.822691   55.541767   48.114601
H   80.152710   22.591187   56.431652
H   73.595619   78.612038   70.934097
H    5.712805   57.821426   63.597015
H   19.830147   22.070177    2.911375
H   93.052338   82.103470   34.713783
H   50.519073   40.336697   98.737991
H    6.994311   27.966616   92.421974
H   83.593765   20.261877   58.036217
H   45.985126    0.724116   35.229095
H    3.147698   72.857269   87.115318
H   49.225525   73.671211    7.794786
H   17.253441   45.066631   59.423409
H   18.213072   42.555695    6.577711
H   61.465324   50.174381   86.133003
H   31.204828   99.315224   99.973236
