100
TIME:    1.892, STEP:  1892
H   89.374420   48.515244   97.413834
H   48.640846    7.325617   97.347099
H   12.276617   10.022326    1.125356
H   81.794174   54.700035   36.456120
H   78.224579   24.409657   14.405066
H   98.677498   99.158348   66.117699
H   53.809597   89.094246   38.409721
H   71.178825   52.283260   34.476936
H    7.119026    4.385252   80.992790
H   23.136347   43.549675   81.778893
H   24.265793   42.371113   57.501736
H   83.628082   18.526598   58.254280
H   22.912617   47.238823   37.079605
H   61.400780   99.244179    1.221119
H    3.513196    1.026488   59.827263
H   25.451904   46.248383   75.989029
H   71.953491    7.117989   45.616196
H   41.575699    2.692562   33.954391
H   74.731010   57.726929   63.038593
H   41.543884   65.632675   45.148781
H   52.002670   67.863586    5.892586
H   43.765202   46.597160   58.155518
H   60.483101   79.234703   78.217514
H   43.254234   59.373295   66.558960
H   61.915031   36.121162   50.521561
H   37.983662   71.231430   11.835437
H   98.929146   63.831219   37.510975
H   72.899796   44.751873   29.311323
H   52.310623   20.749018   67.736473
H   73.541176   44.013107   33.796688
H   90.527657   91.710266   59.696095
H   85.219299    0.240625   24.112129
H    3.626953   30.054081   68.243256
H   58.042870    0.332347   92.044754
H   33.743202   15.899632   39.937576
H   37.057079   33.110210   14.135652
H   61.265572   35.247902   57.547489
H   85.791313   24.325130   55.953579
H   65.665024   40.119377   60.788712
H   84.987984   35.060390   86.892960
H    5.944794   21.102644   86.919235
H   61.579010   96.770668   91.689529
H   27.537741   74.845703   38.134529
H   58.542122   44.480827   65.722824
H   92.538658   57.240215   18.013700
H   53.678127   99.003792   90.853127
H   56.057850   27.803415   43.790230
H   56.340458   14.863283   85.644188
H   20.335966   75.753441   69.003342
H   65.570518   59.546848   51.334843
H   43.400272   86.982872   73.365799
H   97.081261   88.175659   49.856495
H   48.127075   32.979187   92.985100
H   32.878414   76.338234   15.305307
H   90.137726   24.367456   16.461012
H   95.933548   10.543547   28.218658
H   16.197046   34.954323   35.932472
H   85.174896   98.211197   64.822098
H   39.494507   18.710115   66.234619
H   34.166111   73.213989    9.797009
H   79.049332   90.585518   66.879448
H   31.760403   10.333723    9.746457
H    2.565310   78.132912    3.759526
H   72.960510   52.086502   75.774361
H    7.418007    9.732722   71.760193
H   85.116798   48.216072   58.055157
H   35.770309   13.774817   58.408276
H   49.672447   25.743053   56.651142
H   51.200424   13.839264   41.570030
H   68.713196   43.305527   97.749115
H   61.952950   66.669106   39.455875
H   17.963343   88.733154   95.144798
H   83.629425   24.720547   13.234333
H   88.551811   29.649687   90.761375
H   53.391472   31.335791   44.824688
H   70.389061   28.831686   68.620872
H   38.736252   62.562111   24.509649
H   20.869930   27.007029   18.927410
H   52.242554   47.959812   38.787254
H    6.738113    5.911116   57.923683
H   47.907040   48.855267   93.069481
H   83.282089   56.583755   28.569986
H   37.509640   38.836060   10.103485
H   80.323006   74.062477   90.616608
H   60.204865   30.538460   64.344269
H    7.744255   78.552040   73.169441
H   93.517113   65.789108   13.761230
H   86.412628   53.816437   76.074104
H   94.945992   88.829002   12.720530
H   99.059708   31.433395   91.852608
H    1.450961   75.593216   73.417313
H   18.276125   37.801907   69.571159
H    6.678757   84.322617   65.285416
H   30.096729   27.996023   54.385590
H   23.880566   80.255981   59.562614
H   50.193039   21.018145   69.724640
H   12.424516   76.258553   28.378784
H   13.811919   32.346924   25.763771
H   18.582367   45.005962   86.566971
H   56.740952   30.104954   15.459019
