100
TIME:    4.058, STEP:  4058
H   42.895905   49.882019   95.430801
H   88.403877   24.760408   33.975372
H   49.508049   65.852776   75.708961
H   82.157730   65.460625   17.729841
H   58.823914   98.024101   55.675278
H   65.098152   96.811760   80.623680
H   40.290401   35.353405    7.793890
H    0.935498   39.670208   35.601971
H   53.874550   96.133133   44.650677
H   63.946068   74.650230   66.598877
H   22.789749   29.524769   48.862019
H    0.956117   27.097010    4.076602
H   85.117813   16.194839   21.798904
H   54.152397   92.567970   66.056808
H   29.862404    7.550659   55.709293
H   38.361694   56.801567   96.191345
H   97.786812   50.375004   42.804100
H   87.854454   97.359947   58.858913
H    8.473068   48.592659   77.152802
H   83.188408   19.640047   92.620171
H   23.469238   52.231274   47.101280
H   51.424759   49.471039   73.702103
H   31.563881   61.618767   16.245655
H   42.009346   85.351013    5.689990
H   84.447174   64.340958   66.509071
H   28.048689    6.695720    8.814526
H   12.152586   73.792191   80.486855
H   90.139740   45.853424    0.905787
H   99.407639   17.265598   65.348366
H   56.594742   90.403923    5.988292
H   75.764229   85.944191   88.322899
H   21.981642   40.392685   23.594643
H   56.198353   71.579796   63.373642
H   49.561981    1.831335    0.794914
H   79.899948   52.166466   71.831253
H   25.391260    3.262290    6.679493
H   69.013229   55.923325   28.219717
H   96.268501   84.687782    8.804031
H   73.784363   93.001701   51.061729
H   80.974846   32.286644   57.310200
H   57.916061   95.424973   37.950420
H   66.911209   93.982666   93.450058
H   46.194767   87.834564   94.587700
H   20.228121   80.779205   77.504028
H    4.654600   71.781860    3.364345
H   25.733898   40.316944   99.644569
H   73.437790   45.526085   64.420647
H   56.456135   37.166046   19.663933
H   83.649399   96.366791   82.599335
H   10.985942   92.500465   99.843605
H   43.235020   77.869637   96.203720
H    2.344530   87.187286    7.660837
H   93.048592   45.538391   67.188423
H   82.718529   40.996452   10.885089
H   17.689957   14.221376   34.861805
H   98.643692    8.265341   54.482910
H   53.510311   72.454765   41.937080
H   23.888664   93.659325    9.029905
H   10.323210   10.228888   99.947823
H   91.233063   39.699825   48.191414
H   15.682190   89.856590   98.002968
H   54.888268   90.170792   11.741582
H   49.558567   30.372887   55.201225
H   21.694643   63.869019   16.964237
H   93.390984   36.738125   73.472862
H   52.055733   40.537544   86.124435
H   61.987625   88.658142   62.982586
H    0.051784   49.618912   60.198467
H   59.153999   58.204330    5.720951
H   12.601847   52.249191   93.188141
H   93.171898   19.293484   13.469040
H   39.366463   16.848236   53.730305
H   42.402695   17.581676   57.703682
H   40.878963   92.581047   62.041405
H   57.822399   34.424236    9.021636
H   21.590265   67.653770   22.877956
H   35.394859   74.826706   62.816837
H   22.632549   85.378120   38.548401
H   56.107101   41.599102   62.962234
H    0.513101   87.946556   71.320915
H   90.284103   71.263535   22.525915
H   45.801956   70.729385   47.450317
H   74.547615   74.993347   16.404430
H   29.334448   59.410957   92.781693
H   54.738602   95.053688   54.374802
H   57.899769   58.113472   23.583206
H   38.179375    8.303276   17.044767
H   21.275904   80.401039   53.541313
H   39.899521   68.229271   95.001595
H    7.556426   42.319298   69.279083
H   90.092651   92.552177   19.159342
H   78.547333    0.684191   10.849876
H   45.579109   49.278076   32.815899
H   39.449154   59.381729    0.429255
H   86.429451   86.238579    9.335944
H   29.095779   35.484627   57.847984
H   40.497101    0.561102    3.809408
H   21.761709   50.789124   91.101784
H   15.399437   54.342739    5.136078
H   91.269417   74.496895    6.819633
