100
TIME:    0.008, STEP:     8
H   16.781538   21.287567   99.138687
H    1.047691    5.178463   78.505157
H   79.901886   74.479393   23.245934
H   81.477951   32.321404   39.724937
H   95.099396   73.398758   65.488426
H   27.892281    1.204945   79.538048
H   52.550213   61.879177   91.078094
H   19.257513   89.294281    7.458914
H   53.431343   85.524155   99.582771
H   74.621986   16.502342    8.001749
H   99.510895   66.564407   38.978905
H   55.536785   24.091469   92.360008
H   42.753227   61.223373   24.334015
H   54.685993    5.052601   57.849915
H   80.600441   69.306503   50.388805
H    1.199494   11.039352   32.376507
H   23.422586   82.526161   74.083061
H    1.315816   94.311462   99.268845
H   45.388870   78.689575   63.782318
H   92.432838    5.364748   16.733789
H   63.801819   55.421700   57.023788
H   63.114902   44.110497   18.574282
H   85.637215   94.557152   32.122391
H   18.298283   36.777714    6.480127
H   29.296381   85.538002   36.617264
H   46.615894   27.377480   88.419914
H   61.389896   42.144993    0.125155
H   31.865303   56.812588   67.040909
H   11.344943   49.817623   56.793976
H    1.300887   90.641647   84.024834
H   16.416445   22.759592    8.778952
H   66.262482   52.288902   98.523506
H   70.922302   67.896950   98.517654
H   78.440163   72.989563   71.414452
H   80.572975   58.315445   25.215919
H   73.250725   85.114494   20.616804
H   80.568214    4.240147    9.094170
H   63.657425   58.807827   23.006266
H   50.361713   80.337212   41.360260
H   62.438976   11.433962   38.663429
H   34.694752   56.453617   42.526051
H   30.902176   12.215456    3.176322
H   11.310782   63.547909    2.051494
H   78.848862   12.905980   81.513443
H   55.960747   31.576305   56.791656
H   77.849266   63.354282   83.349663
H   36.164539   26.171940   27.691595
H   56.239841   95.464035   69.072937
H   65.260735   31.786495   44.155563
H   26.057570   30.871159   83.105362
H   43.536846   68.872643   53.513683
H    5.522363   62.997536   73.537491
H    9.045410   22.055115    2.404811
H   76.498718    7.071810   32.168659
H   40.123009   59.206921    0.474077
H   93.576248   12.524097   92.354462
H   96.759636   89.315956   56.748329
H   25.464556   76.130943   13.348974
H   90.908333   39.107117   10.868907
H   58.496597   28.402609   63.369606
H   60.205460   78.198227   13.772571
H   98.627197   27.870895   94.991852
H   74.776375    6.607773   33.009247
H   43.588806   41.837997   26.923834
H   32.638741   60.206226   96.305977
H    0.854052   41.875477   46.658886
H   86.926476   48.638309   67.448593
H   79.813087   17.994656   66.585045
H   57.302528   49.211494   59.732037
H   30.548668   48.546631    1.714019
H   21.779013   94.859856   62.051456
H   73.306725   51.260017   57.208225
H    6.469817   17.911304   61.544605
H   30.014954   48.874142    2.733092
H   62.555813   28.655081    2.004064
H   25.846785    8.084883   95.391800
H   67.682190   25.850800   91.173035
H   32.356186   50.196796   14.881794
H   61.937988   53.475964   17.777657
H   99.133102    8.518092   20.231836
H   11.038780   29.363451   80.466858
H   41.924656   44.279800   86.111511
H   18.302074    7.390872   30.661715
H   50.720787   12.846165   62.699501
H   51.941925   48.385788   46.976707
H   51.116367    9.341235   42.341015
H   67.689018    2.771265   23.924679
H   56.083954    4.653603   95.654671
H   55.849312   93.727165   28.135643
H   65.627296    8.957993   24.497881
H   24.349977   73.862518   33.630688
H   78.878548   96.108421   33.677605
H   85.797523   27.871088   19.533495
H   48.001518   13.717443   27.358459
H   56.453342   49.013622   16.271404
H   94.582321   95.415764   67.035683
H   61.967308   68.139488   36.728767
H    6.894825   16.305786   55.907074
H    8.330833   36.884777   44.381367
H   39.738354   78.496880   96.915268
