100
TIME:    4.672, STEP:  4672
H    1.374606   93.575203   94.868668
H   71.446175   58.034042   72.691284
H   60.062111   10.026614   68.504280
H   82.260788   40.164604   84.075081
H   53.324371   47.238907   39.026749
H   55.575207   96.146568   41.430080
H    8.111475   76.814011   55.809490
H   52.676308   92.789703   79.226692
H   38.781258   37.099716    6.000568
H   47.166374   83.466362   90.639465
H   65.676971   54.230549   89.718796
H   77.524315   57.873833   60.370888
H   45.937088   79.064888   60.788574
H   23.750965   90.675453   12.780749
H   37.330086   52.705383   26.193047
H   13.672913    3.098770   45.224548
H   48.412727   90.987595   98.698936
H    0.975663   67.492577   37.570263
H   18.036369   74.350555    9.502337
H   66.642937    6.600885   34.424080
H   87.033623   91.104645   30.438477
H   10.289536   50.286133   21.414291
H   23.366096   56.625145   98.677872
H   84.962051   92.714966   60.090675
H   62.486481   15.646149   71.043617
H   25.248709   88.539795   51.084064
H   59.207970   48.268429   92.666420
H   38.332066   74.512878   21.202631
H   12.759351   72.972435   36.323524
H   80.138779   75.207573   54.799019
H   99.926613   41.002735   39.745171
H   60.750134   23.430298   66.753609
H   99.446022   26.656218   18.687613
H   75.504456   45.561768   74.927452
H   64.638016    5.752693    9.221375
H   78.766769   51.359913    4.739188
H   27.904928   33.437973   76.600693
H   70.888161   73.454475   52.130688
H   47.867077   79.622917   91.561066
H   23.143599   74.806816    5.617159
H   15.953671   16.492140   52.415997
H   11.728050   21.539358   22.295183
H   51.483509   91.516541   38.937317
H   81.020401   91.066254   37.538673
H   51.393742   47.557076   55.906391
H   17.812496   52.028065    2.140044
H   78.234665   78.916832   70.313683
H   56.488926   43.490051   57.654808
H    1.599831   45.514126   58.107910
H   23.863491    1.842177   56.897362
H   43.188175   18.592098    2.677147
H   32.182137   30.212320   67.355042
H    5.782687   49.098572   31.526167
H   68.496544   30.976418   37.978111
H   68.803345   68.031990   40.084965
H   99.411942    7.619232   33.580902
H   92.436813   54.738182    0.333417
H   78.168839   35.675224   93.214462
H   58.746353   36.173065   52.811790
H   50.714123   86.893372   30.727791
H   54.414185   61.300640   50.129265
H   33.096214   84.455765   83.961182
H   91.242409   88.473923   13.097404
H   63.858788   67.213531    0.292289
H   17.761370   87.699249   30.652491
H   14.337021   10.013895   22.428427
H   12.725050    9.886640   92.625778
H   57.638786   84.733536   89.551216
H   89.753555   14.086197   67.214233
H   25.041399   83.130859   91.895233
H   73.675224   77.516937    6.102896
H   88.739410   96.470184   98.683342
H    2.367737   87.210426   41.959251
H   27.359646   53.726994   25.558922
H   87.427132   35.300228   55.567471
H   36.107368    7.003655   81.562790
H   91.142197   21.608097   73.675392
H   51.479382   45.230206   72.457954
H   85.552284   39.795589   69.811607
H   70.401459   54.507633   18.424126
H    2.295790   77.615646   59.223278
H   91.870674   74.739273   96.107323
H   13.388300   85.251648   74.882050
H   71.575104   11.952000   36.701759
H   24.841890   56.649681   94.854500
H   43.766788   80.665627   66.221054
H   79.187035   63.660461   46.322571
H   31.157747   31.242476   47.156410
H   52.641220   34.042168   89.979866
H   53.271641   17.056068   91.230408
H   15.220206   25.706779   32.125896
H   23.979254   46.858429   22.549532
H   84.937843   67.702950   80.297470
H   98.793686   96.623672   41.827404
H   75.814491   31.240364   23.443714
H   79.809616   11.239698   26.134270
H   91.761253   35.797009   68.497910
H   24.014929   56.016968   81.273811
H   86.149902   56.989452   53.708801
H   29.406954   58.739979   47.672092
