100
TIME:    1.464, STEP:  1464
H   18.318071   87.765121   97.805679
H   60.546425   84.121178   70.348930
H    4.919553   79.230293    6.149958
H   81.722336   72.333092   59.917881
H   82.058136   90.103584   26.009178
H    5.314295   99.622032   23.730272
H   76.241280   60.195194    4.939530
H    4.818787   15.257090   73.774986
H   17.640083   45.535812    7.932900
H   34.831703   37.404228   65.020958
H   64.077316   25.149494   98.729919
H   99.961517   97.073647   88.720284
H   50.136642   73.133293   79.618919
H   82.593102    0.563530   68.652092
H   98.307228   39.255871   80.399826
H   42.660461   83.684258   11.516202
H    6.364094   78.813644    6.649510
H   32.429367   23.506531   48.792282
H   68.063103   39.770599   40.491138
H   53.073944   74.723495   16.008524
H   77.400803   10.471024   17.509178
H    2.725631   46.032249   94.597694
H   66.197517   82.715599   90.462692
H   83.020042   54.240116   98.344177
H   77.223137   70.065376   47.363937
H   39.946156   83.986008   51.951378
H   35.836250   81.621048   29.017721
H    9.014183   24.774273   15.164062
H   43.004288   81.917664   87.968773
H   57.129375   54.606003   99.772881
H   73.691353   53.328979   93.564209
H   58.195011   12.065120   63.734261
H   73.480667   61.368980   29.685637
H   39.959190   39.555794   10.075592
H   44.381813   48.253029   13.876572
H   99.843414   99.488113   15.606709
H   20.216000   50.921730   23.822638
H    3.482653   32.158779   25.752071
H   84.904648   49.255913    1.808803
H   25.301332   75.128975   53.219303
H   35.192810    6.416638   76.835739
H    0.045199   77.563698   71.581314
H   23.851126   72.279114    7.220081
H   85.873360   37.306786   23.876516
H   29.664715   74.127457   81.388382
H   59.199886   90.840340   89.115944
H   51.538563    4.714249   40.133003
H   56.317600   10.456652   59.161953
H    7.826286   11.201447   86.074753
H   56.594555   53.032413   81.270470
H   43.432926   28.304106   68.853043
H   76.280785   27.890448   77.953476
H   39.248505   30.497498   17.842377
H   42.788845   83.319618   96.419632
H   24.210678   86.847092   12.829195
H   95.398026   10.993353   42.788788
H   89.063202   47.303993   95.225929
H   17.044827   38.631248   75.846024
H    5.740264    0.625459   99.090881
H   62.408390   40.316189   21.969933
H   52.051159   10.489985    0.251618
H   46.950928   14.318304   29.113167
H   73.535873    7.319193   33.122169
H   43.569809   49.758286   87.392586
H   90.430656   43.917080   31.900331
H   11.409391   69.493294   32.748455
H   70.109055   98.978180   37.744946
H   79.237206    1.264216   36.190266
H   29.867691   44.592621   68.414192
H   60.041832   21.777647   98.650360
H   75.543465   95.789772   44.589054
H   53.252964    2.937733   63.810181
H   11.535957   45.890011   24.209278
H   97.969170   56.735878   16.198723
H   32.757530   30.726797   12.378876
H   60.271709    1.400756   97.421532
H   99.876244   99.656967   16.938860
H    0.761707   54.994316   95.290421
H   31.726168   49.213718   34.013268
H   27.728317   29.221037   94.796364
H   39.531338   44.427410   67.488487
H   51.169033   53.788589   64.358719
H   10.429698   31.691477   69.338654
H   50.880878   37.437969   29.709755
H   81.044525   57.311317    5.834101
H   17.595898   62.832256   43.447945
H   64.931969   96.908188   93.352173
H   79.522675   88.083344   80.525032
H   86.064156   12.659284   16.221886
H   36.901070   49.043594   76.551033
H   83.935432   52.482479   64.378738
H   86.608131    5.613119   61.415276
H   79.217278   71.496201   32.174454
H   88.728767    2.034534   25.529053
H   31.281551   18.593056   49.727287
H   14.842026   37.918694   91.831268
H   46.396683   51.696362   52.993225
H   12.240455   28.702759   32.612762
H   38.970329   43.161022   22.418896
H   30.160751   41.099209   56.681831
