100
TIME:    1.188, STEP:  1188
H   36.982338   13.075600   98.058365
H   68.223854   69.157982   52.938900
H    0.175989   59.373425    9.390800
H   81.676010   83.703941   75.045891
H   84.530243   67.980965   33.492882
H    9.594322   99.921043   96.396904
H   90.707527   41.557529   83.355919
H   26.511841   91.379379   99.115135
H   24.424690   72.072006   25.306330
H   42.374367   33.441277   54.212532
H   89.750168   14.044057   25.315630
H   10.496349   83.239113    8.366220
H   67.692413   89.831596    7.051785
H   96.259178    1.414436   47.648075
H   94.950722   63.907452   93.665817
H   53.757568    7.824818   34.426254
H   28.553257   60.561325   81.520088
H   26.531265   36.928345   58.360641
H   63.763351   28.191286   25.951189
H   60.509216   80.585800   97.217247
H   93.779037   37.948471   25.000252
H   76.260979   45.667961   18.098797
H   69.882515   84.960289   98.359116
H    8.663498   50.929935   18.842789
H   87.094719   91.956367   45.327713
H   41.211689   92.210922   77.821182
H   59.637123   93.092972   23.540762
H   32.301262   11.891353    6.041117
H   37.003006   56.876530    1.015702
H   46.546062   61.436935   77.831352
H   62.834293   28.578283   15.403992
H   40.768131   19.690178   89.284981
H   54.039646   81.562767    4.821377
H   28.297752   64.849617   21.702555
H   51.242226   69.116432   97.070496
H   75.846710   77.807693   16.556593
H   93.743858   61.029152    2.075160
H   14.889826   37.210384    6.276093
H   97.311508   55.147697   28.262642
H   51.296631    0.966136   31.503111
H   54.053680   96.946022   70.333298
H   24.850517   65.177895   58.614338
H   21.473776   70.624023   87.283669
H    3.498019   32.680534   96.890633
H   53.604668   85.018204   57.770149
H   62.760647   85.576057   87.995705
H   48.624256   89.826279   37.774605
H   56.302860    7.614992   42.084621
H   99.759026   34.058960   97.083420
H   50.805950   48.831516    0.575583
H   43.453983   54.949944   65.942947
H   62.867393   53.502064   96.071030
H   33.523071   28.897156   33.872238
H   49.179684   87.821632   84.240189
H   46.183792   62.652332   10.487116
H   95.052689   11.283415   52.184479
H   71.564728   55.267799   68.976112
H   37.597351   64.695763   82.954910
H   83.971931   88.963989   20.279579
H   80.622620   19.101133   29.820030
H   34.641125   23.324532   21.770279
H   56.746704   16.887619   41.602150
H   54.815056   26.141098   52.056740
H   24.616697   48.256912   94.884712
H   79.476738   65.961601    6.196946
H   28.364449   83.214119   16.429182
H   92.252731   89.435089   24.419395
H   98.302330   85.479721   22.995871
H   16.111069   64.424225   85.723152
H   54.451164    7.895430   99.231537
H   84.307442   14.569342   47.899235
H   76.010513   12.098110   43.601654
H   29.532433   59.541348   31.286579
H    4.043166   74.201538   32.602226
H   19.450539   30.334082   91.455986
H   53.746105   83.712669   15.992650
H   74.818260   23.578844   12.055286
H   87.794724   73.041328   80.049271
H   18.495974   50.022312   30.935081
H   41.263840   44.253525   18.573792
H   34.130184   41.572063   50.992336
H   30.459427   51.986099   87.437332
H   92.965660   27.085230   43.050938
H   31.893667   13.820291   54.919350
H   94.483185   74.574768   32.589088
H   23.948833   52.693249   24.281746
H   46.498558   16.975655   80.191467
H   75.079620   10.180445   83.393013
H   80.336617   28.025839   18.480263
H   61.302811   60.399704   66.683662
H   72.640388   37.580349   58.550121
H   66.186928   84.855278   56.157310
H   61.508232   63.225159   10.821609
H   62.053444   85.293968    6.919832
H   36.053257   43.316231   43.384880
H   92.045486   48.817863    6.087135
H   68.304520   35.857189   68.866089
H   11.227080   26.352783   37.028442
H   52.118401   41.971294   45.537518
H   13.020248   48.189144   83.264351
