200
TIME:    0.553, STEP:   553
H   19.089029   61.436214   20.691683
H   30.754066   37.447605    2.603815
H   11.577459   82.838112   60.765129
H   28.393290   80.632179   36.314823
H   11.886942   91.662186   49.158314
H   79.436157   44.319683   56.284985
H    7.894034   55.082047   55.709721
H    9.902781    2.402269   13.962214
H    0.139794   82.813805   40.083786
H   99.843048   70.514519   83.726494
H   23.103361    1.280521    2.852761
H   32.072098   50.377262   27.656002
H   18.856373   97.395683   48.463341
H   89.609665   54.527500   57.348415
H    4.510198   74.354080   42.208462
H   20.177032   13.069969   47.570934
H   98.931824   22.377836    0.235411
H   29.129759   98.213829   37.947968
H   75.439491   18.370256   47.091480
H   91.052048   75.406273   25.337292
H   61.841400   92.382942   11.500625
H   83.060844   60.778252   58.512901
H   85.632309   60.265694   41.625946
H   15.237918   90.912842   90.604614
H   16.851128   25.292391   34.241673
H   18.401995   76.227135   96.618896
H    4.957150   65.077202   61.666626
H    1.693538   83.041351    1.554864
H   24.251549   47.015938   36.505573
H   78.905296   29.149212   87.798706
H   12.952846   64.525948   16.577490
H   26.234253   70.842270    1.309268
H   19.560501   15.720595   77.002342
H   86.067406   63.919403   43.761208
H   32.967915   76.867599   31.838211
H   22.837032   42.785412   83.065643
H   95.248123   67.673347   88.304726
H   17.432867   52.851830    1.094343
H   41.486061   35.192535   51.389072
H   87.081032   38.401356   51.469818
H   80.597443   90.602257   11.913483
H   28.918627   36.543468   30.550081
H   71.066177   80.591660   61.950680
H   36.583969   78.435905   29.942684
H   39.471485   85.844765   55.659157
H   36.655125    5.692729   46.091972
H   85.872513   10.877536    3.041651
H   82.495712   65.545830   36.395401
H   99.185143   16.874249   61.391998
H   50.916481   19.214006   92.470634
H   70.762451   66.534424   15.464277
H    9.173211   41.085308   70.271111
H   60.618237   85.468811   12.020162
H   17.748201   88.788910   86.338272
H   63.950272   69.423912   80.650620
H    1.293217   64.639206   88.897522
H    4.537222   17.929909   46.297062
H   70.828293   65.855629   99.654121
H   21.576550   80.523880   14.696745
H   35.864067   94.231606   61.208107
H   49.405811    9.269691   33.091656
H   95.561668   17.166357   51.465469
H   80.070381   31.690487   74.325180
H   31.709730   65.598892   10.655895
H   76.379890   80.745224   30.728687
H   26.461525   28.721420   38.489426
H   74.483498   16.559763   92.301826
H   95.588631   92.161552   93.468414
H   27.655941   10.082994   58.018112
H   43.435219   47.085373   50.965878
H   58.327854   82.005730   81.653671
H   23.343702   15.594589   42.573837
H   87.427872   31.074306   89.014824
H   18.062485    2.084734   69.684792
H   82.956284    5.938321   52.895470
H   61.225204    8.026346   60.832150
H   94.104630   41.602444   67.718224
H   14.962123   11.669498   37.264519
H   13.910202   43.638252   28.006092
H   63.559677   88.921318   79.417816
H   56.652546   24.812031   96.486832
H   40.399467   62.961510   78.181053
H    9.778549   17.099648   81.121735
H   14.467155   72.094566    4.052915
H   27.762226    2.633686   48.911968
H   33.485401   74.822952   21.267162
H   49.883526    3.436332    2.488906
H   72.728569    6.894847   23.247866
H   75.266037   72.819069   78.298035
H   21.876408    0.076663   51.422009
H   28.122129   37.594818   79.362282
H   81.875183   91.281662    5.197423
H   62.128578   13.332037   86.815422
H   45.992393   83.188553   77.699081
H   33.055969   52.692276   80.975876
H   56.310005   34.707333   14.345066
H   83.551460    3.453114   11.809297
H   98.290253   33.302311   51.557079
H   29.925545   66.642586   53.990475
H   72.646683    3.013372   27.326822
H   23.831144   89.080505   83.678535
H    2.211255   81.391975   64.138077
H   29.667593   25.731102   34.876671
H   36.915932   68.517380    2.592045
H   24.923824   23.359402   35.235344
H   99.814438   11.448486   29.236691
H   80.485397   33.983253   54.802551
H   62.906952   46.291988    6.638408
H   80.750992   36.138706   14.267735
H   14.421409   23.696318    7.069167
H   51.312649   93.346848    1.016069
H   98.562004   71.216248   94.076447
H   51.657757   83.906807   87.127182
H   62.163902   12.649454   66.882538
H   53.405144   95.002274   15.798000
H    1.264796   96.640984   93.054634
H   19.706005   12.850063   87.828964
H   39.183094   42.402664   27.721947
H   30.749210   69.464958   68.070190
H   79.042725   52.921871   61.018887
H   43.821358   23.839382   77.263367
H    4.783796   20.065289   57.395100
H   39.782478    8.621533   33.314377
H   99.465767   56.055470    4.158462
H   67.550636    1.202333   82.461151
H   59.189526   70.916031   19.487953
H   87.606529   50.651382   58.966705
H   68.582275   90.024834   37.646091
H   96.319565   41.153801   77.757309
H   82.916161   22.665800   71.834015
H   61.243866   74.009857   15.372837
H   69.685974   89.155777   16.708294
H   91.415688   97.823013   99.703453
H   85.572884   21.028015   53.559528
H   19.888577   95.710587   42.033958
H   54.021568    1.225144   79.070374
H   69.410912   87.362114   70.920364
H   93.888130   54.448059   78.252823
H   54.494522   48.710838   71.476059
H   43.617493   94.078407   86.760391
H   66.113396   53.864117   25.020706
H   42.829102   50.521038   53.543427
H   44.943661   62.522041   88.826897
H   43.370750   15.197658   83.311165
H   55.014408   59.386436   59.303516
H   57.408504   67.368286   14.855495
H   52.134056   95.407082   45.040756
H   34.105789   61.767639   67.029198
H   73.552826   51.724018   94.832893
H   19.439447   92.092026   78.283791
H   65.187660   66.625641   48.981270
H   46.963161   98.449005   38.343616
H   90.716286   20.134998   92.477058
H   18.183935    8.327201   68.217789
H   26.024170   62.145103   66.415848
H   72.793808   44.305004   63.690571
H   62.587597   70.270424   84.461960
H   50.496105   31.637932   17.057085
H   98.056366    0.554965   90.997040
H   60.170509   44.172791   90.252716
H   57.030499   71.693283   75.093704
H   28.908226   21.434252   32.832401
H   78.692451   20.923231   37.101906
H   22.763824   29.374657   57.807438
H   55.957245   32.708996   12.899991
H   17.306398   54.480141   60.590820
H   69.510117   92.504402   55.539825
H   23.905640   45.173405   60.955677
H   98.325989   27.152325   36.117847
H   40.756779    8.097683   86.878662
H   73.385437    9.356114   35.949806
H   35.350075   53.821278   58.419285
H   43.720554   64.005020   81.617081
H   67.371704   67.051270   81.501183
H   56.890167   92.681976   84.514175
H   10.571040   49.351555   23.587036
H   32.202301   62.698818    0.001373
H    4.504051    9.499359   68.882492
H   67.596992   14.103249   65.474037
H   71.411346   57.812630   90.800415
H   75.703331   96.405853   34.441868
H   25.540943   30.488125   81.042747
H   51.223831   89.838020   12.267754
H   58.297184   25.799576   88.705223
H   89.570625   74.758598   77.107315
H    5.812968   38.864899   85.520729
H   42.250824   99.163177    6.200478
H   75.383812   80.482735   36.478756
H   97.553963   62.569191   70.120636
H   55.305370   56.570667   69.657547
H   62.772736   20.668781   77.066292
H   45.087009   93.435257   20.637621
H   11.052919   24.970407   64.976349
H   29.635303   76.022758   39.621185
H   74.153381   40.274788   20.792429
H   76.092300   11.151486   25.278120
H   11.541825   94.094124   14.031293
H   19.813000   91.185440   38.139469
H    7.739384   12.487694   64.018608
H    4.743190   24.388395   93.400246
