100
TIME:    6.675, STEP:  6675
H   65.919266    9.891319   93.034866
H   16.128696   66.573936   98.984962
H   94.505264   54.129997   44.988705
H   82.596985   57.640594   74.284302
H   35.383682    7.788025   84.719101
H   24.507557   93.976570   39.793835
H    3.134237   12.064873   12.446848
H   95.244453   66.073212   95.317009
H   89.543633   44.519409   79.919884
H   92.441475   12.227604   69.070992
H   79.362793   34.825504   96.779976
H    1.072815   58.273853   17.795235
H   18.121170   57.939518   61.759941
H   24.574692   84.501656   65.211723
H   61.680550   73.788933   29.901936
H   33.137314   27.909218   78.957520
H   87.343239   23.470539   81.039925
H   43.809109   70.033585   68.133827
H   49.229694   58.379654   15.027644
H   12.682587   64.057899   70.797661
H   68.172760   91.699615   76.070564
H    2.319092   52.945145   50.840363
H   96.621330   40.334877   41.371582
H   98.853859   16.680635   11.329514
H   90.848579   56.800026   85.836281
H   16.117907   29.329628   62.729103
H   86.486351   65.007339   32.410084
H   69.323807   68.006142   87.412735
H   56.312416   54.700085   41.640686
H   56.942051   25.633812   14.032043
H   78.759544   20.616047   81.274254
H   87.220917   68.085709   81.325890
H   40.535183   80.107796   99.133667
H   60.136559   61.998795   90.544785
H   14.833941   54.278877   31.163637
H   52.883831    8.243159   98.440285
H   20.018696   60.082642   34.429111
H   88.102623   36.797672   93.478325
H   63.320644   35.978447   97.455597
H   34.483273   87.292160   63.210781
H   79.062866   85.218559   99.605812
H   37.681412   67.779160   20.731018
H   68.732330    3.529265   83.616203
H   53.121326   24.682333   33.382019
H   77.648415   68.528702   27.308329
H   91.963127   90.232254   10.279146
H   93.883102   87.846756   89.538033
H   56.595898   64.120316   81.589111
H   60.144142   79.626198   78.206528
H   65.882080   32.331203   16.815619
H   43.043255   25.215567   23.791195
H   29.530495   44.349457   35.864143
H   47.332729   60.712646   15.194635
H   22.115173   98.291565   26.365067
H    9.321232   43.570221   57.124035
H    1.909464    5.512271   65.394043
H   19.418467   96.941887   90.835411
H   29.021059   46.516350   41.623520
H   16.720581   20.806202   99.043694
H   18.538277   40.851231   73.757713
H   80.764549   68.151627   93.960922
H   62.009132   65.812119   93.330582
H   27.225805   51.793251   75.745667
H    1.399433   78.124649   45.914913
H   97.264175   27.722706   17.182714
H   91.291779   10.439079   40.861938
H   52.020950   79.133362   89.330643
H   19.278038   99.287025   85.306198
H   89.582771   70.163406   41.588795
H   65.616173   83.875420   87.677490
H   10.070604   41.234497   82.078529
H   23.583139   29.994888   45.334427
H   71.768616   88.133911   90.600403
H   83.265785   26.959019    6.548173
H   83.999260   38.157902    7.408012
H   83.459007   35.377476   46.786163
H   73.015228   48.063068    9.123701
H   45.583965   14.257963   83.075127
H   81.603249   33.912144   92.153419
H   72.176834   45.401131   45.863914
H   41.492233   98.337601   78.938370
H   42.183380   87.759155   28.574295
H   40.084221   18.747595   65.637573
H    9.379426   83.353172   53.758266
H   27.312414   31.360054    0.686094
H   97.663071   54.239563    5.315412
H   12.962954   18.025917   41.833183
H   63.381371   70.934509   26.368477
H   94.207382   22.518816   73.597908
H   76.179550   34.648655   62.829704
H   97.191124   33.862892   74.425583
H   72.181305   97.503540   60.708054
H   13.333747   27.802341   35.192574
H   92.380043   18.137293   76.884018
H   41.186211   51.824478   69.470703
H   45.249237   32.142426   22.676727
H   32.771843   50.744186   53.304092
H   25.393030   16.738636   44.880402
H   90.731590   65.626472   85.935860
H   53.819981    7.344057   54.717258
