200
TIME:    0.183, STEP:   183
H    7.719644   62.664165   14.364912
H   27.456242   32.046032   87.583206
H   19.332403   66.643272   42.540642
H   15.921120   76.307533   45.990231
H   15.815327   82.284592   54.478024
H   91.472900   54.362064   67.236748
H    2.533417   55.344574   48.548084
H    1.611287   86.424988   27.095589
H   85.113632   88.360756   49.109932
H   12.867718   75.697319   98.320763
H   10.206893   93.376534   91.160416
H   30.542099   40.501431   10.026316
H    9.775180   85.116173   63.627831
H    7.097954   52.966450   39.519131
H   22.373871   71.505798   43.118839
H   30.961830   28.314911   55.552616
H   81.525970    5.048936   18.199488
H   37.915730   80.426888   44.535149
H   63.128933   31.765509   41.644741
H   89.874908   80.487450   39.680325
H   57.401016   73.912865   28.451900
H   91.297997   46.635643   72.771248
H   96.712097   62.955894   50.503891
H    7.403551   87.542976   91.763313
H    0.768946   10.411468   47.444263
H   18.708277   59.806824    8.839125
H   97.792046   57.653034   46.790070
H   93.202179   67.778061    0.581290
H    8.667863   58.262276   38.672131
H   95.625191   19.237389    0.597602
H   13.435910   49.067875   16.125124
H   32.962578   62.170395   92.199783
H   28.500549    7.759027   72.482918
H   98.313042   63.515732   37.293999
H   50.723804   92.156296   34.652660
H   34.923176   51.221577   78.822861
H   84.628464   75.659264   85.527016
H   35.734421   43.280869   17.730272
H   55.179832   48.441704   43.164623
H   90.629387   39.922886   65.922943
H   80.487350    7.886464   99.632286
H   10.502184   44.302143   41.521282
H   77.728165   89.091339   48.211742
H   37.408249   60.465755   16.709747
H   26.829525   74.556084   42.306953
H   41.861919   15.321912   42.067963
H   78.900009   29.004734   94.929176
H   91.503510   65.551476   49.696793
H   84.875984   30.915234   61.125237
H   64.157166   17.544275    8.123948
H   79.564178   71.217575   30.127693
H   23.317060   34.716900   62.315945
H   50.639698   96.053452    7.182495
H   23.254927   80.980835   80.859070
H   79.611588   77.652596   92.616791
H    6.036354   73.754272   76.781738
H    5.593154   16.529762   50.266026
H   66.785934   57.254330    6.332220
H   29.383919   73.376358    5.747876
H   44.421616   96.309242   68.047935
H   50.604122   16.488491   43.901859
H   88.912560   16.289854   48.629349
H   69.876976   24.025673   86.807938
H   22.744982   65.071014    2.394868
H   70.432091   75.229324   15.598769
H   40.975613   14.346671   31.838730
H   88.304298   24.364309   84.657478
H   97.660622   91.320335   86.143051
H   14.495028    5.082974   62.701263
H   45.565079   40.636513   50.985638
H   58.490170   75.606270   71.756668
H   33.742355   25.320087   45.163826
H   75.684708   24.677670    1.404346
H    6.008390   10.217568   58.913361
H   78.450974   99.948875   70.292854
H   51.873016   21.088989   63.249943
H   95.668503   27.828222   72.951836
H   28.666452    4.931999   49.916649
H   11.097206   27.153862   36.200901
H   69.134972   90.984840   96.964813
H   40.948887   31.065407    1.979700
H   24.130163   69.615250   89.619347
H   11.222097   13.041059   91.947464
H   26.532833   59.995720   91.993744
H   40.938000   98.721115   59.397541
H   23.061327   87.768661   28.969379
H   33.300541    2.665334    1.640650
H   75.805504   20.665775    9.292274
H   63.944508   71.908897   76.958893
H   23.729626   83.492264   55.492596
H   43.632244   34.400734   81.008018
H   84.452469   88.035355   97.124100
H   44.551941   17.504953   97.353218
H   62.583847   96.481476   67.539551
H   23.680571   57.697235   65.565796
H   71.632576   26.434895   31.741711
H   78.532387   16.250681   95.874352
H    8.461658   27.552977   48.053890
H   38.309486   70.349022   52.679249
H   66.213348   97.001099   27.236490
H    7.323143   78.850403   66.255745
H   88.452721   75.794212   66.179016
H   21.997839   39.253006   29.706259
H   19.136948   67.834244   87.898842
H   25.414299   28.221806   23.239532
H   85.166534   29.563587   46.559383
H   62.958164   29.389021   56.524506
H   65.086922   32.085865   20.945663
H   71.347992   40.809155   96.376350
H    2.535701   28.855124    5.258292
H   46.444599   96.562103    0.755747
H   83.705208   61.911732   89.861893
H   58.084034   79.613213   95.175201
H   63.417259   20.626196   76.423859
H   65.752403   79.595016   28.771238
H   16.364689    7.464842   76.362968
H   34.918484    7.640081   83.515610
H   41.060307   24.190880   35.117882
H   16.697639   55.573589   86.356781
H   69.278397   45.537228   47.216434
H   39.959663   21.380657   89.387619
H   20.748535   28.830318   46.511501
H   30.862188   24.226559   22.338245
H    4.917110   69.370132   20.361280
H   78.621956   10.363376   94.698318
H   45.634075   60.792747   26.631947
H   96.803459   48.923782   73.256104
H   76.675461   87.122917   34.521168
H   91.766266   54.546936   86.189240
H   64.982430   24.419512   65.530533
H   46.308029   87.220917    1.233066
H   83.887863   85.486038    7.982786
H   92.623878   79.821533   96.951149
H    3.715582   11.541503   49.005421
H    1.610237    2.400758   59.036140
H   63.876228    1.700005   84.521347
H   68.798347   86.419273   52.501099
H   90.732155   66.000435   84.098999
H   44.823349   43.536507   71.563568
H   43.417068   11.823721   97.041306
H   47.795750   64.744987   13.068735
H   59.862335   39.278934   44.918129
H   56.837849   55.711853    1.306799
H   60.324944   28.591070   77.179878
H   37.622669   71.657478   47.204670
H   43.851643   60.993565   32.576099
H   43.383141   97.027412   47.690025
H   44.208862   75.540451   69.152000
H   63.661472   67.171921   98.511101
H    7.642360   88.049324   92.131523
H   78.229347   60.341915   51.774506
H   31.387970    8.686871   49.938580
H   73.527794   33.969913    5.465653
H    8.403102   99.834358   77.361084
H   11.352272   52.373718   59.721905
H   61.809998   43.387569   52.307323
H   58.714611   59.174309   80.080856
H   45.235676   37.574440    8.388739
H   14.990567    1.949106    4.718709
H   64.318619   59.269531   76.053650
H   53.396046   86.725098   84.931427
H   46.280331   23.351690   36.037777
H   62.765789   37.055042   37.255753
H    9.182439   18.505173   73.637573
H   59.499954   20.154253    9.264480
H   10.931638   66.252678   62.613411
H   75.881348   98.488899   51.617439
H   23.582420   28.339184   45.655689
H   93.298447   28.355576   36.991528
H   23.871746   10.889860   91.045227
H   80.453918    4.955957   35.980858
H   48.132057   67.564087   57.283077
H   36.571621   79.903458   92.027847
H   71.925346   75.910660   72.923691
H   74.087128   95.465332    1.911417
H   99.147484   47.352959   23.232059
H   36.003304   51.140553   84.523544
H    1.224826    9.146500   64.151352
H   77.059273   22.704630   69.801506
H   89.011978   53.843666   85.580917
H   82.458473   83.146805   43.044582
H   18.077965   30.036465   67.535286
H   68.259186   90.224899    4.941881
H   50.239784   25.114773   75.093315
H   84.785851   90.806648   78.631668
H   98.067131   35.742798   83.668922
H   29.367363    5.500944   98.002274
H   93.159462   64.810127   23.532099
H    8.269056   60.919220   65.891968
H   48.577045   58.583378   64.982864
H   45.097298   32.910183   79.708504
H   48.120190   83.380173   25.350412
H    2.834371   16.167974   56.500500
H   36.099430   61.256031   32.164558
H   86.850677   56.801315   22.002737
H   75.188980   10.243579   30.347300
H    9.082395   84.005165    1.542873
H   30.566040   98.539032   48.574230
H   12.673418   11.452404   80.566307
H    8.602265   36.923805   98.540703
