100
TIME:    0.422, STEP:   422
H   88.784584   83.321815   98.759659
H   89.531502   27.624886    4.620093
H   87.014984    4.264569   18.384895
H   81.547440   15.263578   17.031660
H   91.391235    6.582681   54.262871
H   21.472488    0.754355   20.537371
H   30.853916   89.832756   23.453722
H   86.717926   25.110531   69.448219
H   43.254433   45.719864   73.524574
H   63.307991   22.445190   24.214685
H   61.001617   83.222702   99.100639
H   39.734463   44.843269   62.890556
H   16.419300   36.175919   83.185356
H   34.186878    3.776144   89.354103
H   85.635201   32.328682   30.486780
H   84.556061   74.826668   98.010239
H   90.138390    9.904526   11.777165
H   10.162417   74.178741   84.916306
H   51.835510   96.055389   85.595367
H   81.226234   96.684021   44.977715
H   39.234467   14.205528   45.788757
H    2.811860   44.656929   83.323250
H   80.109718   91.190117   20.276192
H   79.833145   41.742985   75.734055
H   14.490587   52.706745   39.674759
H   44.724003   15.035344   49.618996
H   25.688868   24.934597    8.340216
H   96.934319   76.136719   80.723831
H   20.347275   87.379326   37.223480
H   17.175009   80.395248   16.936386
H   32.702030   59.885414   76.018364
H   92.402802   40.851723   60.197426
H    0.082220   37.606270   35.814049
H   95.932320   35.048828   53.972832
H   70.282356   27.020340   50.424461
H    9.246163   17.635973   19.192289
H   20.274639   89.080910   41.717175
H   46.547455   51.230419   52.219875
H   31.748287   71.499535    1.679387
H   23.446091   72.677620   71.237053
H    6.403446   70.659187   52.282871
H   93.694206   30.797159   22.626272
H   14.876018   66.030548   31.954960
H   52.411636   19.843779   21.992828
H   20.050446   15.241801   92.218811
H   72.561821   71.137260   84.973167
H   40.535999   48.506184   31.229193
H   56.261951   99.728104   94.688934
H   77.364372   97.499924   27.639822
H   34.740475   37.172504   54.148674
H   43.512424   28.902517   57.866383
H   25.640871   24.580162   46.359108
H   17.632921   24.455627   78.361610
H   66.915619    0.316472   50.437824
H    7.163549   95.499298    3.986998
H   94.094254   12.088442   78.260925
H   23.005058   77.370247   96.123055
H   94.635925   37.034172    2.684855
H   23.559372   56.599274   79.086838
H   31.170990   60.225243   51.606895
H   86.320511   58.944420   81.493011
H   83.933533   24.017441   76.261536
H    2.856290   78.376137    4.607121
H   72.018196   44.090057   15.682486
H   49.072777   27.139397   34.861023
H   75.421272   21.294239   71.137794
H   53.710960   62.949787   87.436020
H   51.215401   41.672226   86.376640
H   77.935326   19.464088   33.765438
H   38.935036   69.370262    0.843362
H    8.631468   66.691734   57.086185
H   39.171207   37.520241   87.518562
H   79.476395   97.433907   50.928654
H   20.902405   22.674372   78.127892
H   82.517746   29.244154   33.388844
H   35.635189   34.618599   67.533218
H    5.269437   89.968376   98.500916
H   51.806656   23.126842   37.745930
H   81.780449   52.266232   22.393906
H   78.829819   85.971596   84.565552
H   19.140026   33.647442    5.210894
H   72.986824   46.983536   51.492447
H   44.496914   14.301032   70.093292
H   79.199921   48.272678   24.885109
H   31.782316   22.487122    6.844308
H   41.580532   24.554604   71.088188
H   95.339134   72.670082   43.665737
H   62.748535   71.507698   91.352699
H   64.440620   70.675926   24.748077
H   29.025665   91.922195   39.298138
H   41.292545   96.218872   42.373608
H    9.510515   27.244223   41.564552
H   12.360382   40.275314   51.562004
H   88.015541   38.830078   55.271000
H   49.296024   11.928860   25.783436
H   28.777084   79.067009   45.652168
H   29.105692   91.898247   12.919369
H    8.414599   19.830750   49.283554
H   88.609062   38.669369    9.703434
H   65.449112   67.865135   57.041489
