100
TIME:    0.733, STEP:   733
H   67.752602   54.801460   98.474930
H   80.880486   44.487652   24.237577
H   92.358398   26.638649   14.733246
H   81.599640    2.449587   99.984245
H   88.605637   31.510704   45.830147
H   16.649891    0.415873   51.337490
H   14.554420   10.832542   47.774326
H   62.273941   52.015049   40.892723
H   35.609459   15.818569   53.948235
H   54.808830   26.909504   36.393967
H   32.073151   95.736542   69.142403
H   27.863636   60.432182   40.752876
H   96.636734   17.360077   52.274178
H   18.787785    2.817260   13.021114
H   89.417351    4.550030   15.537302
H   72.051712   47.624126   72.194809
H   65.134438   30.471451   40.092705
H   16.807945   59.054886   74.134567
H   56.678276    9.102199    1.981257
H   72.807747   90.163727   66.194771
H   20.779282   83.244965   37.348915
H   32.632740   45.067413   56.842808
H   75.957420   88.660774   11.377533
H   50.937897   45.472935   52.636620
H    3.368287   28.042095   41.970894
H   43.297985    5.769123   20.469393
H   98.870987   12.006530   14.511717
H   70.691795   90.653152   91.002548
H   27.109589   15.595624   22.522739
H   29.099222   72.698074   41.659634
H   44.935886   87.774620   51.408287
H   12.039158   32.260025   31.406578
H   21.988987   14.852571   63.831383
H    9.072968    6.547652   40.870552
H   62.551964    3.510900   69.361984
H   36.286926   42.066418   18.122183
H   50.102840   77.691750   66.222847
H   33.694313   45.538212   74.166466
H   17.766907   64.860603   71.872894
H   94.153191   43.562412   95.704765
H   85.149139   81.331779   59.612270
H   65.743309   44.755997   37.237614
H   17.554594   67.895523   54.417709
H   32.551788   25.055506   52.401497
H   93.073280    2.971748   18.832327
H   68.589851   76.983696   86.192757
H   43.819874   65.283661   33.886665
H   56.278561    2.930322   13.931777
H   86.456718   71.741440   15.233905
H   41.263142   41.906124   32.397751
H   43.488697   98.876717   61.145512
H   40.754738   95.721786   25.941666
H   24.084406   26.258911   60.299812
H   59.715305   95.243431   64.161758
H   82.405823   22.763170    6.626080
H   94.483383   11.761597   67.673752
H   42.720169   68.396538   25.701958
H   71.477966    7.664379   94.674271
H   48.086403   69.739517   55.211437
H   10.648992   84.128616   42.761314
H    5.938526   44.482559   57.244255
H   72.895538   21.122696   62.190872
H   23.951519   57.168571   83.271339
H   93.372871   45.781822    7.237898
H   61.418152    2.300090   63.825081
H   56.315956    5.833496   89.526543
H   28.759054   73.702820    2.450896
H   29.732597   59.458298    1.244239
H   93.434074   97.117630   14.259182
H   45.234665   85.011375    0.189376
H   98.755302   45.529552   53.356236
H   13.528189   27.198814   10.288004
H   59.198944   82.049049   42.953869
H   14.057214    2.993349   59.644234
H   97.513474   29.686670   56.964405
H   42.988316   54.552002   46.607609
H   33.506344   63.014030    4.004301
H   66.417999    2.791192   54.922207
H   96.686012   51.355320   25.861668
H   63.577835   69.034966   57.772552
H   25.226109   36.864880   23.798111
H   96.320366   49.014603   25.485123
H   64.174080   19.491598   99.714600
H    0.592612   74.885353   96.478645
H   16.638292    3.033401   76.696373
H   34.421970   35.978580   92.684883
H   16.110144   50.057854   58.495373
H   67.755020   46.608147   88.121025
H   70.894478   53.359657   22.203312
H    1.529160   79.123627   50.416805
H   54.019932   13.012091   48.941357
H   32.521534   50.634468   47.489288
H   32.313972   49.593071   75.621605
H   18.074602   57.695747   76.240303
H   43.919392   84.071930   32.929100
H   54.464386   66.785698   29.588707
H    4.420595    9.745719   95.033310
H    9.556481   22.478729   44.307915
H   73.793663   40.009968   83.651527
H   84.763229   59.877262   27.087801
