100
TIME:    1.177, STEP:  1177
H   37.726234   14.084337   98.068436
H   68.529839   68.561623   52.245022
H   99.986938   58.582027    9.519958
H   81.674164   84.157127   75.648796
H   84.628769   67.099266   33.791145
H    9.764896   99.932961   95.307579
H   91.284081   40.814724   82.495705
H   27.376419   90.427689    0.125078
H   24.695091   73.129608   25.998739
H   42.674980   33.283333   53.781754
H   90.773361   13.601466   26.375204
H   10.916218   82.687737    9.149183
H   68.392166   90.497108    8.145085
H   96.803841    1.448349   46.810940
H   94.816948   64.890015   94.194534
H   54.199844    8.786999   35.339340
H   29.437599   59.833878   80.518547
H   26.296196   37.463272   58.741989
H   63.592064   27.729792   25.371698
H   60.805550   80.819443   96.468315
H   94.431793   39.043587   25.298809
H   75.206230   45.653442   19.035465
H   70.029381   85.049751   98.673828
H    9.685516   50.798008   19.659782
H   87.488152   92.828835   45.246559
H   41.262127   92.538727   78.852264
H   60.585709   93.550186   23.322477
H   33.229370   11.377889    5.677530
H   36.763824   55.878513    1.535657
H   46.124264   61.709183   76.956871
H   62.401585   27.591806   16.274403
H   40.073582   19.994064   90.303307
H   53.264782   82.367592    3.830410
H   27.832985   65.857704   22.165937
H   51.515648   69.947945   96.400620
H   74.890320   76.943619   16.594442
H   92.688774   61.431984    1.208418
H   15.344460   37.411716    5.499876
H   97.805984   55.382515   29.316971
H   52.332664    1.995936   30.637651
H   54.805382   96.568535   70.074142
H   25.839134   64.684258   58.097538
H   21.379026   70.558060   86.489082
H    4.200426   32.496155   95.815071
H   54.558792   85.452255   56.828781
H   62.902561   85.366249   87.951057
H   48.508106   89.232941   37.680611
H   56.302273    7.501737   41.404003
H   99.437431   34.969948   97.522171
H   50.575245   48.664089    1.344913
H   43.454823   56.011909   65.826965
H   62.332802   54.522823   96.793106
H   33.294884   28.833374   34.511147
H   49.434391   88.001060   83.754776
H   47.059532   61.687969   10.393772
H   95.038925   11.294975   52.558945
H   70.867325   55.585197   67.929924
H   38.416443   65.734566   83.238235
H   83.104332   88.499222   21.124058
H   81.348557   18.255606   30.132896
H   33.947247   23.836044   22.627892
H   57.137115   16.990005   42.099899
H   54.068893   26.891247   52.811378
H   23.861345   48.197075   95.183311
H   79.040169   66.840111    5.172536
H   29.040199   83.760963   15.778784
H   93.135269   89.054749   23.888287
H   99.062172   84.850632   22.470007
H   15.562815   65.214615   86.413002
H   54.228348    7.342155   99.254700
H   84.656731   15.317812   48.031162
H   76.917557   12.463198   42.796242
H   30.249683   60.085423   31.568645
H    4.285264   74.897598   33.255989
H   18.920185   30.318430   90.622124
H   53.486027   83.007713   16.732811
H   73.819572   24.532255   11.860647
H   87.277924   73.760551   79.441833
H   17.968683   50.054539   30.812428
H   41.803299   44.852654   19.521454
H   33.914921   41.458263   50.334881
H   29.634083   51.914261   88.357132
H   92.269600   26.901648   42.003239
H   31.136930   12.879006   55.924080
H   95.018784   75.262772   33.655418
H   24.202030   52.289158   23.517876
H   45.763893   17.775444   79.666946
H   74.902542   11.061115   83.507317
H   80.108345   28.638269   18.570271
H   62.275314   60.852303   66.290398
H   72.190224   36.986423   58.317822
H   65.373039   84.027962   55.947754
H   60.802437   62.895592    9.970606
H   60.990219   84.626778    6.178170
H   36.243427   44.301575   43.132103
H   91.136932   49.252251    6.655317
H   69.177658   35.225918   69.498703
H   11.186692   26.259125   37.204430
H   52.642418   41.923878   46.458912
H   12.337112   48.471714   84.323799
