100
TIME:    3.334, STEP:  3334
H   91.857819   16.276421   96.093643
H    8.528547   85.509140   88.307755
H   37.063194   13.765422   84.204384
H   82.036209   95.288506   57.416500
H   65.308716   39.992306   75.306442
H   76.322273   97.596123    8.922806
H   78.234642   86.465172   51.176079
H   57.840469   77.034866    2.076450
H   71.671852   65.742874   90.223396
H   83.731895   64.254662   38.246323
H   90.134476    0.393467   18.602064
H   28.591064   90.807022   55.611107
H   31.187016   59.995758   93.756737
H   90.001091   94.799538   10.958294
H   21.054893   72.221054   90.509804
H   67.471497   20.125397   56.290382
H   56.006721    2.489829   76.895523
H   72.388145   32.568367   83.959656
H   97.196251   18.217936   39.009876
H    2.697281   35.014675   43.326836
H   66.432434   24.306984   66.749786
H   82.014175   48.509918   35.357361
H   41.230324   67.507011   36.961563
H    9.276825   76.667786   59.462795
H   10.341601   21.756203   61.162148
H   31.371183   28.267904   76.674782
H   74.584946    3.885689   66.125282
H   51.228107   12.059540   76.977043
H   83.665146   51.578384   99.573097
H   28.833035    8.323367   48.431763
H   47.269833   21.022028   45.603477
H   76.268044   60.393936   90.618996
H    5.199360   24.550720   98.150002
H   18.970657   68.181557   31.294056
H   97.896103    6.895278   27.745766
H   62.433437   46.388577    9.178594
H   99.573402   82.436996   71.171501
H   26.191696   97.933571   57.711475
H    4.342012    8.775797   21.222761
H   49.167507    0.064809    0.346001
H    7.396886   70.579453   20.893293
H   31.980247   61.491943   59.435226
H   39.958530   83.492950   42.291775
H   66.460632   68.649200    6.715156
H   67.454842    0.350287   41.410580
H   35.074444   26.507740   96.705971
H   67.781540    6.151504   57.466667
H   56.417469   29.709925   74.866966
H   62.483047   56.326752   11.478744
H   95.802879   81.486244   50.479290
H   43.290257   47.767548   88.569992
H   67.158859   54.369537   55.192112
H   78.035225   41.340393    9.235321
H   99.488426   52.811607   78.937042
H   75.335098   50.767693   28.704378
H   97.737808    9.027609   79.129578
H    7.613786   93.345329   73.078560
H   77.799797   62.032501   27.680099
H   53.221420   79.638107   55.531040
H   39.008858   84.050323   68.783699
H   70.011909   23.526367   54.450047
H   80.584435   96.909683   44.502357
H    0.405074   79.776787    4.848099
H   71.980217   59.930634   36.623020
H   64.656792   94.562630    6.049737
H   96.532417   76.529854   43.315903
H   20.075550   63.624897   28.028414
H   50.063637    8.211810   25.587080
H   23.067787   10.226341   51.130825
H   97.933411   15.832779   94.712677
H   16.162441   68.554390   22.155029
H   99.064133   40.876251    0.721138
H   89.608078   53.391705   76.265129
H   56.820309   38.397285    5.059862
H   22.917536   33.391308   54.137974
H    4.473164   21.250395   71.592682
H   69.661354   37.577644   50.012943
H   88.617706   32.718113   98.563126
H   21.390760   43.725719   54.881088
H   36.019783   27.376541   33.694046
H   76.121384   63.773418   79.254349
H   91.477798   66.001114    7.990213
H   28.740995   62.907532   47.446873
H   79.523514   97.456268   58.906555
H   89.990738   40.341290   24.558403
H   74.561218   31.516994   73.306244
H   89.825035   60.943962   82.521240
H    9.623697   38.366150   61.070091
H   24.873798    8.540773    0.923285
H   71.568848   72.107010   43.399506
H   60.463623   53.457050    3.869787
H   24.975008   46.240929   97.053123
H   99.170593   27.553434   76.827782
H   69.472298   15.463978   51.612389
H   98.946114   51.090878   92.699394
H   69.296310   64.075203   95.243309
H   97.965485   59.011990   45.448387
H   19.104818   44.624695    2.689529
H   49.889305   51.221859   65.780418
H   46.297779   93.078560   76.565353
