100
TIME:    9.604, STEP:  9604
H   67.842682   41.288887   90.353287
H   35.236404   25.290470   83.668205
H   44.854801   64.854118   10.603523
H   83.088608   36.966545   13.734134
H    9.139162   42.559937    5.302656
H   79.089355   90.803368   29.861824
H   49.623608    9.845401   41.498486
H   65.030838   19.470356   26.386162
H   17.543221   62.906509   95.549461
H   12.438284   54.284214   83.756172
H    6.914326   52.678802   14.641367
H   89.282631    5.089508    9.306126
H   31.334549   80.670952   70.687912
H   79.549088   75.473671   88.108467
H   97.256172   12.156197   89.044212
H   15.366798   71.727951   35.825256
H   51.810493   17.201355   47.678360
H    6.442915   27.508110   66.602615
H   94.854004   81.253174   69.337448
H   33.766911    1.862167   70.217583
H   94.361252    0.108847   96.574127
H   83.125183   56.833435    1.408981
H   57.514961   16.520777   57.569016
H   26.707451   51.719940   93.797440
H   86.090805   24.515106    7.464027
H    2.321341   42.977585   87.102821
H   33.915054   43.250416   90.523117
H   22.184309    4.721960   84.229759
H   20.001064   20.442019    3.186457
H   69.253105   53.140549   46.878761
H   94.032814   83.264847   49.541183
H   72.159775   87.163544   10.173653
H   46.850845   65.808044   63.001122
H   83.893631   93.573479   67.150185
H   41.938820   32.512398    9.367303
H    7.496942   37.660091   89.233528
H    0.947986   52.816170   65.222977
H   67.038872   83.196999    0.169794
H   39.684559   72.162437   13.613564
H   58.603207   13.088080   93.657242
H   78.886307   85.719055   68.610558
H   90.840813   79.265701   70.259514
H   93.939178   21.100857   95.180168
H   66.103432   73.852089   19.761852
H   23.578833   52.978672   77.953430
H   54.158676   46.092419   22.178656
H   16.777645   47.139111   17.660086
H   56.773800   94.288086   62.818272
H   45.763214   37.046772   61.368637
H   27.371138   76.918938   12.020815
H   44.758350   42.583893   51.726761
H   71.883377   72.559830   43.593391
H    8.078794   77.695984   45.087601
H   54.281708   50.508446   55.613960
H   76.109962    0.252911   82.024200
H    5.557529    2.431248   65.683960
H    5.104752   12.427200   69.407753
H   10.922521   69.907753   66.178123
H   47.726971   44.574234   74.186882
H   25.254185   65.984680   90.449989
H   65.532166   31.941168   65.598595
H   58.053185   38.549393   60.806580
H   26.077469   51.925819   74.896378
H    2.528858   94.080048   66.394028
H   13.521399   93.786964   89.947029
H   11.360886   64.830315   14.048224
H   17.021580   80.396423   30.743992
H   16.951981   66.800423   25.329346
H   35.564339   59.704147   57.887928
H   25.077225   31.028376   81.473694
H   17.054199   41.941502   46.949837
H   82.400826   32.710350   60.013935
H   80.793427   43.256611   15.501614
H   18.789471   41.582821   32.515907
H   25.104712   42.456623   29.483221
H   52.704414   23.098686   49.701347
H   39.031197   94.549118   61.074387
H   83.185417   22.746758   44.843735
H   22.060675   25.308743   24.838282
H   28.535816   85.843513   93.528145
H   98.829903   28.640146   54.001427
H   61.971146    6.760628   83.532906
H   25.347273   67.731117   44.579899
H   10.889398   33.994705   86.240440
H   84.696732   48.131439   16.754019
H   30.254848   61.827148    8.714145
H    8.584368    5.062885   81.498909
H   10.486925   36.555580   96.002472
H   54.995365   59.436790   49.642464
H   17.216005   14.140671   67.534241
H   17.058584   92.018631   36.281029
H   88.897644   17.792116   16.521975
H    1.088543   15.681906   61.696648
H   73.536598   95.690414   77.324867
H   90.542404   89.461525   36.774361
H   87.172592   16.480932   71.389771
H    0.282364   18.832218   84.853012
H   19.739367   61.664730   86.075401
H   51.200554   78.274590   40.602261
H   35.752617   32.181263   72.556763
