100
TIME:    3.477, STEP:  3477
H   82.187164    3.162776   95.962723
H    4.550595   93.261810   97.328171
H   39.521225   24.053040   82.526421
H   82.060211   89.397087   49.577641
H   64.027878   51.454388   71.429016
H   74.105354   97.441200   23.084711
H   70.739449   96.120552   62.358864
H   46.600952   89.406845   88.947182
H   68.156639   51.994049   81.222618
H   79.823921   66.307930   43.846443
H   76.832962    6.147247    4.827600
H   23.132774   97.974915   45.432045
H   22.090775   51.344101   79.543144
H   82.920479   94.358772   21.841053
H   22.794498   59.447586   83.636482
H   61.721909    7.617950   44.420265
H   44.507545   11.947999   89.913376
H   75.442955   25.614311   79.002136
H   99.424080   24.217363   46.543255
H   98.844627   31.978407   53.062950
H   57.946609   10.070480   62.868317
H   95.723724   48.699753   23.179581
H   39.321068   66.344002   32.870300
H   95.990501   78.382843   48.841877
H    5.227250   10.415222   62.218239
H   30.714945   24.006990   63.270775
H   62.254269   97.941422   68.961891
H   39.162701   18.734299   81.703270
H   86.774506   64.552597   92.813240
H   34.316101    4.783879   59.800018
H   52.898319   33.845058   34.289772
H   85.297188   56.443413   77.380760
H   15.272322   14.088543   11.032575
H   25.013180   55.076424   25.270081
H   94.341614   96.085442   36.453064
H   74.868690   57.622639    8.684915
H   13.288892   77.200180   82.439384
H   20.281731   95.317345   67.802574
H   98.305939    5.660437    7.365375
H   35.699070   86.678192   11.596979
H   97.623993   75.486786   24.262312
H   19.128227   67.909653   66.153625
H   41.190273   84.350479   52.620304
H   57.328934   71.045044   20.696909
H   55.050922   94.707672   53.647274
H   33.229557   29.235249   97.286385
H   68.898727   13.928689   58.840240
H   56.425106   31.182234   83.715004
H   66.663376   44.483910    5.774159
H   98.800957   83.661705   40.478062
H   43.279346   33.961990   90.077759
H   74.108551   41.099663   45.804028
H   81.000572   42.169556    0.930037
H   96.176140   50.477951   85.247406
H   63.949387   63.300049   29.920301
H   97.916733    8.877050   74.261520
H   16.679186   89.219154   86.679008
H   67.151604   48.528061   23.996326
H   64.499168   85.680084   44.552273
H   29.572769   95.041092   64.716438
H   79.032326   16.876156   43.301083
H   75.509087   95.578659   38.031616
H   10.113393   70.018852   95.042137
H   81.799248   60.708519   32.740139
H   70.332191   83.142006   19.367071
H   87.747658   69.420876   51.771179
H    8.602013   68.569244   34.932598
H   40.185692   16.390516   32.423306
H   30.195312   99.951294   42.161686
H    0.830943   23.025225   94.411560
H   11.621403   58.824821   20.439426
H   87.272568   36.130386   11.190974
H   80.284363   46.318729   72.599358
H   53.671673   29.347572   96.563103
H   29.812132   33.595325   64.978188
H    7.854047   30.415369   61.970264
H   82.644295   25.183056   52.541889
H   95.336105   23.367628    6.460549
H   28.247717   43.305683   56.477226
H   29.006813   19.588413   21.374435
H   78.918716   65.252823   87.801270
H    2.206904   66.935013   96.032471
H   37.788685   65.294647   61.066959
H   89.362183    9.693184   45.846153
H   83.027954   31.396152   10.696218
H   71.270752   36.770126   83.236557
H   99.375679   50.546700   89.340012
H   11.925169   26.917160   59.583054
H   27.841873    0.578932   99.753426
H   58.925861   66.224319   48.510857
H   66.315765   61.178082    6.889688
H   35.556290   56.994949   99.778450
H    8.336926   31.844351   87.886192
H   83.293129   24.138000   61.253586
H   96.473900   38.281406   95.985497
H   81.107513   58.428169   87.857216
H   86.614685   67.218513   37.224403
H   19.629591   45.842255    0.401399
H   43.077080   51.838276   53.802452
H   55.179638   89.408424   62.790245
