100
TIME:    5.206, STEP:  5206
H   65.261879   44.604561   94.379776
H   56.697945   86.969116    6.360066
H   69.243378   48.444183   62.237171
H   82.350418   18.163200   54.805489
H   48.541382   90.041367   24.548458
H   47.292568   95.568047   94.313591
H   80.123177   12.870964   97.568985
H   10.704964   38.986813   30.196201
H   25.654518   85.757645   72.388725
H   32.572960   91.133812   11.549818
H   16.005585   75.717331   38.281292
H   57.144310   84.640648   22.360083
H   11.861343   46.773598    7.727536
H   97.311317   89.029518   53.419861
H   43.824196    5.006810    0.523707
H   92.201263   56.393265    0.897214
H    5.471529   26.307423   47.311066
H   12.394584   41.511517   19.058992
H   26.353638   96.749939   37.633976
H   52.256554   95.259804   70.781319
H   55.345299   37.943832   15.944878
H   61.484634   50.995026   75.939301
H   16.236427   52.282158   83.400009
H   35.345348   99.107147   20.429939
H   43.387115   73.298477   74.987343
H   22.814436   72.756744    0.869618
H   13.159288   26.069221    3.260166
H   93.274940   99.438202   38.855690
H   24.370811   21.421011   11.082111
H    0.615152   61.991203   97.251106
H   20.943569   88.887711   97.496788
H   94.467354    8.677487   17.318520
H   37.060795   87.586922   66.794548
H   98.066803   96.623985   52.430290
H   51.364609   65.386398   41.736740
H   25.186094   93.184593    3.059380
H   79.121765   13.880421   18.677593
H   48.817509   63.684658   89.814796
H   25.325100   67.987297   39.811890
H   72.845757   24.814747   47.632038
H   79.458694   34.813354   64.996803
H   63.734856   45.506378   47.379398
H   56.083164   94.718781   77.508217
H   46.922253    0.025269   89.751266
H    5.074152   26.489922    1.601532
H   10.922447   62.213306    4.310811
H   82.406540    7.957438   75.438896
H   56.517445   48.990082   90.695732
H   17.207901    1.289744   36.804459
H   35.063183    9.969999   19.550117
H   43.147434   67.037766    8.306531
H   58.134132   80.661835   32.297829
H   16.859318   52.194885    0.512083
H   56.130180   22.261925   61.542686
H   26.285797   14.833640   44.627583
H    0.079745    7.057516   15.402283
H   26.289871   39.329948   51.121407
H   38.405655   85.245003   79.460312
H    0.863780   58.735413   11.815159
H   15.477245   27.938511   15.539558
H   88.098816   36.469021    8.495887
H   14.145437   79.485367   59.801079
H   27.495291   52.035202   76.479401
H    0.525706   70.122437   85.796570
H   38.957527   45.049793   80.380974
H   81.533257   83.467461   54.002678
H   69.881317   28.348072   18.407997
H   20.751915   15.273883   15.079505
H   16.367567   75.716377   33.721474
H   35.859436    9.988297   90.770782
H   56.718834   41.184143   99.696846
H   44.708359   78.747864   37.780670
H   67.550385   60.794479   28.266212
H   15.605541   19.931633   93.831200
H   13.174018   36.062084   96.047699
H   48.732994   41.228668   45.631344
H   39.625996   75.325386   83.119148
H   76.567673   10.312389    1.946483
H   11.160609   38.227062   75.767937
H   44.213448   25.422699   72.419708
H   12.745108   83.140121   91.139748
H   31.938202   78.226700   51.455223
H   47.166634   94.182068   25.736670
H    8.314848   57.647873   87.929474
H   98.839561   23.246162   43.089027
H   31.475239    0.278355    3.303551
H   14.851706   24.834320   71.785675
H   39.753891   88.490051   41.603416
H   63.722763    4.310907   85.612434
H    6.057839   95.085373   10.320179
H   37.073662   54.539608   43.402996
H   63.490177   87.020523   32.722725
H   19.167940   83.727119   21.592548
H   50.407516   29.015089   77.831764
H   66.582588   83.407890   35.713474
H   23.915878   90.152863   98.552048
H   49.374352   66.442360   37.787369
H   25.974569   60.563660   72.726357
H   60.711243   59.291317    8.979294
H   62.574177   45.038792   96.229721
