100
TIME:    6.015, STEP:  6015
H   10.552731   70.416039   93.639114
H   34.354652   30.807852   57.371609
H   83.155472    6.647513   52.738186
H   82.486206   84.831757   10.459680
H   41.295242   54.886200    2.614698
H   34.744526   94.691597   74.432487
H   37.724125   67.500450   60.833912
H   47.119156    8.976472   55.917332
H    5.767754    7.975671   21.463720
H   10.469656    2.750070   43.229313
H   40.754379    8.269171   60.353416
H   26.264893   25.191273   64.774757
H   60.237259   97.850868   27.340996
H   57.253868   86.535957   14.983723
H   53.662651   32.743088   61.638538
H   59.673874   85.635048   33.743866
H   40.416664   79.815880   20.957525
H   29.694883    2.149181   91.014687
H   38.952442   30.689989   80.255234
H   30.462585   78.076454   25.861750
H    7.338081   57.405865   93.986519
H   39.044250   52.068985    7.045436
H    5.433786   45.702614   60.254333
H   60.178616    8.785128   60.348194
H   14.453725    9.139557   80.962013
H   19.126558   48.841805   24.794254
H   43.398888   92.440201   19.313009
H   25.013840   37.199562   65.599380
H   41.961525   94.820129   72.840027
H   31.634167   41.968651   61.563766
H   52.784775   61.431316   33.491280
H   45.547947   86.323929   42.425362
H   94.045280   28.395903   39.675659
H   32.250511   22.483757   18.348749
H   31.255531    4.231333   91.000290
H   95.511612   56.549461    0.515124
H   56.715096   84.252563   82.423866
H   15.382326   48.877598   46.902721
H   91.176605   50.359550   61.414055
H   96.647934   49.079540   11.281702
H   24.168743   62.569649   84.056496
H   93.302444   65.190964   87.035789
H   63.051556   99.570114   35.943993
H   95.266327   13.604452   68.849937
H   34.899250   94.571793   70.830063
H    0.482855   77.643753    7.597796
H   88.726852   51.954422   83.203499
H   56.560650   57.322525   40.752018
H   40.853523   34.287407    4.532208
H   52.030506   22.283499   62.965736
H   43.088573   88.933792   16.834789
H   97.450920    5.592039   79.188728
H   33.641476   56.885742   53.528034
H   37.397614    9.060443   97.242577
H   61.871758   85.730865   51.509563
H    1.087435    6.206527   87.862000
H   77.576149   15.986762   28.064110
H   78.166412    8.844820   58.623032
H   64.665848   92.917122   49.710213
H   62.089455   90.120636   92.529686
H   39.131855   98.847427   45.418652
H   85.433815   71.955307   23.193878
H   82.419197   96.829872   21.003845
H   56.079857   74.529373   63.835903
H   71.070023   80.436539   55.719913
H   31.834873   43.249535    1.837128
H    4.973421   56.314625   57.466629
H   64.868553   61.541660   53.754383
H   56.690418   17.586784   82.982513
H   52.246574   50.680038   89.067261
H   31.030102   86.140198   89.994179
H   78.002396   51.898880   97.011642
H   14.801926   20.780235    7.521515
H   97.797951   68.728539   45.762260
H   52.177402   37.216282   57.375992
H   67.859337   93.077690   91.196442
H   13.077605    5.205423   97.426262
H   14.575969   57.415344   46.626495
H   49.952953   35.850773   84.791664
H    4.544150   81.353889    2.723613
H   28.576433   91.509598   39.491047
H   92.654938   83.478928   83.786034
H   98.336037    7.710926    2.781059
H   63.970711   26.875893   14.040269
H   59.448708   72.644249   64.665604
H   12.853771   29.994320   59.483078
H   68.882973   66.013283   10.361929
H   52.766747   23.746920   33.211586
H   80.511093   59.266518   78.995857
H   34.531696   61.804569   39.238853
H   70.181236   98.224960   60.487591
H   23.347986   47.864563   48.134659
H   71.026596    7.998113   84.153763
H   28.594254   78.096260   32.381149
H   52.596428   10.941975   54.304081
H   90.735901   58.205658   56.766388
H   85.160149   12.869073   91.260941
H   26.666986   84.080444   58.128540
H   22.172150   62.778599   41.218224
H   12.826687   24.280602   18.296154
