100
TIME:    1.503, STEP:  1503
H   15.680759   84.188614   97.769974
H   59.461571   86.235542   72.809044
H    5.589952   82.036156    5.692094
H   81.728882   70.726341   57.780010
H   81.708817   93.229607   24.951698
H    4.709495   99.579781   27.592573
H   74.197136   62.828777    7.989418
H    1.753463   18.630985   70.194313
H   16.681389   41.786133    5.477920
H   33.765892   37.964211   66.547966
H   60.449631   26.718754   94.973099
H   98.473190   99.028526   85.944176
H   47.655998   70.773750   75.742485
H   80.662025    0.443293   71.619820
H   98.781517   35.772495   78.525284
H   41.092392   80.273186    8.278972
H    3.228552   81.392776   10.200234
H   33.262794   21.609970   47.440231
H   68.670692   41.406807   42.545696
H   52.023308   73.895126   18.663828
H   75.086487    6.588355   16.450657
H    6.465268   46.083725   91.277077
H   65.676811   82.398415   89.346893
H   79.396523   54.707859   95.447861
H   75.828239   66.972084   47.651665
H   39.767330   82.823792   48.296021
H   32.473083   80.000015   29.791639
H    5.723592   26.594662   16.453180
H   43.852295   85.456085   86.125175
H   58.624844   53.640762    2.873194
H   75.225502   56.826340   90.478058
H   60.657505   10.987630   60.123833
H   76.227615   58.515511   33.199066
H   41.607002   35.981667    8.432615
H   43.412407   45.304939   16.251289
H    3.234380    2.551790   15.472661
H   23.956604   49.493507   26.895697
H    1.870770   31.444965   28.504078
H   83.151505   48.423378   98.070908
H   21.627974   71.478081   56.287899
H   32.527687    7.754816   77.754562
H   96.540100   79.313866   73.413605
H   24.187056   72.512985   10.037038
H   83.382896   37.960495   27.689722
H   26.281761   72.588547   84.725662
H   58.696735   91.584206   89.274239
H   51.950367    6.818162   40.466255
H   56.319683   10.858191   61.575054
H    8.966191    7.971580   84.519180
H   57.412510   53.626019   78.542564
H   43.429951   24.538805   69.264252
H   78.176155   24.271540   75.393387
H   40.057533   30.723633   15.577305
H   41.885792   82.683464   98.140640
H   21.105782   90.265900   13.160141
H   95.446823   10.952366   41.461136
H   91.535812   46.178673   98.935143
H   14.140673   34.948219   74.841507
H    8.816002    2.273363   96.096970
H   59.834911   43.313969   20.860680
H   54.511272    8.676366   97.210716
H   45.566742   13.955223   27.348419
H   76.181061    4.659612   30.446632
H   46.248024   49.970436   86.333916
H   91.978493   40.802067   35.532475
H    9.013622   67.554482   35.054440
H   66.980057    0.326616   39.627819
H   76.543221    3.494754   38.054691
H   31.811562   41.790329   65.968361
H   60.831818   23.739222   98.568237
H   74.305077   93.136253   44.121311
H   50.037380    1.643332   66.665459
H    8.992977   43.961018   23.209225
H   97.111046   54.267731   13.880836
H   34.637726   30.782290   15.335445
H   61.193806    3.900331   94.797173
H    3.417208   96.276840   17.628725
H    2.594004   52.444046   97.444061
H   33.595650   49.099461   34.448280
H   25.815689   27.097002   91.436470
H   40.294544   44.830883   69.819466
H   54.095402   54.043289   61.097610
H   12.897399   32.342438   73.053223
H   53.563854   40.775249   26.147530
H   79.145584   54.871735    2.053541
H   16.698200   64.264885   46.156212
H   67.536690   94.072571   95.211838
H   80.150497   84.960892   80.119774
H   86.873482   10.487864   15.902790
H   33.452805   47.438927   77.945335
H   85.531471   54.588215   65.202347
H   89.493736    8.546183   62.158249
H   81.719643   72.664963   35.191574
H   92.498085    4.400198   28.158619
H   30.607162   15.099564   50.623497
H   18.063263   36.378593   89.816879
H   43.301010   53.934505   50.750320
H   12.383649   29.034821   31.988804
H   37.112450   43.329136   19.152134
H   32.582779   40.097370   52.925606
