100
TIME:    5.701, STEP:  5701
H   31.786551   99.211510   93.926590
H   43.026833   13.791770   37.571728
H   77.755722   84.057053   56.425060
H   82.433502   97.768158   27.671276
H   44.107712   29.717714   11.128143
H   39.614841   95.031776   43.335621
H   54.179707   46.297123   36.278706
H   71.798935   81.810684   84.747017
H   13.486473   38.165558   41.229424
H   19.047209   98.241280   30.934835
H   69.961899   95.634857   90.600349
H   38.250229    9.452234   87.125984
H   80.274307   16.839703   58.541679
H   72.801506   87.503792   91.088234
H   49.844017   60.791122   76.731384
H   72.298843   13.098828   59.808319
H   65.666603   59.046337   92.372864
H   22.979933   17.427311    1.900235
H   34.062962   17.516420   63.711056
H   38.921555   84.745888    4.483198
H   25.971291   88.664551    2.509800
H    8.940765   51.652145   33.785446
H    9.626554   48.256355   69.237946
H   89.352913    5.028780   83.667633
H   25.683323   34.042130   78.643044
H   20.557947   58.124870   54.320686
H   70.476120    5.492262   13.082256
H   51.507427   22.543098   55.219482
H   35.133980   66.331299   87.683350
H   19.594929   49.740074   36.601303
H   40.425720   33.275478   58.333961
H   25.721714   95.000900   71.493935
H   71.928825   51.369804   11.388059
H   18.982338   51.260063   31.576220
H   39.060608   27.968134   71.878372
H   68.215805   31.955921    1.502629
H   26.599419   95.751587   57.681805
H   28.359936   54.624714   24.745541
H    4.429890   57.201469   91.843346
H   26.223295   78.475136   86.577415
H   45.628357   51.796501   76.658791
H   19.764919   63.959686   71.004234
H   60.346889   97.687149   13.263648
H   15.316282    8.334066   38.149559
H   62.135166    6.960942   43.960674
H    4.534865   71.654678    6.322123
H   86.273727   34.878372   80.189796
H   56.543880   54.088425   21.323462
H   31.675865   60.291969   17.058308
H   45.444920   17.504217   84.928757
H   43.110134   19.248793   13.524779
H   82.190758   34.729023   99.800728
H   27.127758   55.065063   71.764946
H   44.668350   14.184096   83.386253
H   86.872551   58.214153   48.838436
H    0.696319    6.536824   98.551300
H   57.669228   25.047035   98.199883
H    1.547715   38.498863   66.710678
H   39.902161   79.650124   73.815041
H   82.811432   65.987061    1.460583
H   19.324020   13.449530   69.900169
H   96.578285   74.877975   37.402359
H   61.102558   18.256968   42.535767
H   34.516792   72.818893   72.359604
H   58.606918    5.514325   26.478628
H   51.124474   58.859459   83.270943
H   30.167027   45.460026   42.307083
H   86.558586   43.584019   38.743366
H   41.039768   40.148827    2.674849
H   45.886177   34.885651   89.728455
H   41.000832    7.504629   93.760109
H    3.894112   62.319870   74.023178
H   35.275986   36.311104   15.573227
H    4.710194   88.602684   64.419426
H   37.039417   36.768299   33.573013
H   60.436523   72.954399   12.324936
H   84.568993   32.420994   91.873192
H   99.823669   77.946663   29.284533
H   34.896420   36.773090   81.289253
H   19.942440   98.458687   29.774822
H   22.431643   88.261124   20.724401
H   69.086731   81.442642   10.052037
H   78.476265    2.460049   72.878632
H   42.369316    0.005661   42.718395
H   74.737617   92.283623   95.104477
H   20.081387   18.460560   37.678055
H   47.911629   88.843636   95.389114
H   47.716759   48.874287   36.467247
H   73.994980   76.749825   81.563972
H   62.294651   74.722214   28.014902
H   57.331078   81.268692   53.856487
H    0.115166   24.248838   42.152771
H   50.898514   98.576515   59.871662
H   98.247780   59.046215   11.208711
H   58.024925   39.069065   47.088444
H   64.800812   70.605438   72.984802
H   10.084034   94.849571    9.319510
H   27.273081   68.542389   64.431602
H   37.130463   61.425068   67.519524
H   93.322678   32.338253   48.545773
