100
TIME:    9.887, STEP:  9887
H   48.704254   15.336961   90.094193
H   27.421028   40.626690    1.511261
H   49.719296   85.214607    7.281179
H   83.136108   25.306684   98.221695
H    6.603277   65.243637   97.629539
H   74.702026   90.496773   57.889259
H   34.792622   28.955759   63.629452
H   42.787598   43.952602    0.401492
H   10.586540   35.697296   77.736732
H    4.707560   58.347675   94.836769
H   80.590302   64.065994   87.380836
H   78.482719   19.274254   89.161949
H   13.288553   63.540565   42.564880
H   65.536407   74.601387    9.644459
H    0.693592   86.877258   75.433128
H    3.987259   46.975815   12.333226
H   29.053383   35.918755   73.440964
H   12.494925   13.737341   56.793167
H   99.262924   93.124008   84.256958
H   26.143063   95.851532   89.485558
H   77.567627   71.936653   88.891983
H   10.256668   57.209122   77.308914
H   53.736137   14.220097   49.475075
H    0.412621   55.105438   72.780579
H   75.968857    2.071068    9.552975
H    0.986331   34.634750   60.471966
H    9.511532   31.485426   96.136826
H   98.305824   17.931446   93.583061
H   26.154552   46.117771   89.808762
H   80.104836   46.136368   69.376778
H    5.170295    8.642647   27.151123
H   90.028641   79.343216   83.974983
H   66.785683   45.102097   88.495995
H   95.850830   67.638145   55.227531
H   34.895775   11.085304   26.586065
H   32.096867   59.827763   88.343971
H   28.091274   42.452400   87.522354
H   55.342365   78.019432   20.139587
H   27.738155   65.995995   86.188957
H   31.948883   86.594894   15.922845
H   59.544922   95.430771   75.277916
H   66.991188   80.379807   84.699699
H   96.374664   22.799004   15.621468
H   48.034016   78.602150   47.430958
H   99.007996   41.777164    2.156973
H   50.507607   51.490215   23.328386
H   18.990742   62.531467   20.377337
H   56.791073   97.202896   80.328720
H   54.035164   13.609251   50.075867
H   33.310875   81.228539   92.233772
H   46.334507   15.381157   52.257904
H   85.636963   46.299171   25.015928
H   13.948898   79.336914   28.650452
H   47.728783   45.890091   68.102303
H   53.577400   25.053968   84.429459
H    5.910006    2.133559   56.049973
H   23.045197    4.260998   96.323326
H   89.849808   43.182182   58.888939
H   70.047935   56.533592   52.460682
H    6.579695   87.735641   82.400795
H   83.383759   18.780260   43.534718
H   48.008965   35.915268   48.000847
H   45.313389   32.651367   55.507492
H   21.962303   95.621658   58.710396
H   24.754215   71.185310   16.301649
H   93.976135   50.761497   30.781458
H   94.315498   90.181549   44.406994
H   97.402885   82.985176   38.858383
H   49.669861   39.369568   40.137814
H   30.824799   45.241856   80.873459
H    8.066391   22.684322   43.555702
H   59.095757   23.313866   80.758331
H   62.341599   29.258833    8.244816
H   12.560413   23.672428   15.701738
H   38.736839   42.873333   50.940540
H   59.395523   41.236912   30.660004
H   64.733345   70.056076   66.093437
H   96.481270    4.243056   60.473595
H   35.630737   24.477482   27.997072
H   14.658029   70.427406   69.147377
H    4.369794   31.567911   70.915962
H   83.208031    8.597856   59.856392
H   43.248123   72.463905   71.531570
H   30.359249   58.211380   60.391777
H   70.917236   30.428825   89.320602
H   23.740788   72.221596   28.366642
H   27.485292   84.486397   94.993401
H   15.037807   13.909930   93.070389
H   60.868168   43.679543   47.327888
H   92.195068    2.496544   77.651871
H   28.640097    7.300073   42.257469
H    9.836779   39.075989   21.913294
H   19.229115   24.173719   83.581474
H   99.290565   12.739518   98.859917
H   85.649841   64.113472   43.277626
H   10.547301    5.305962   56.772537
H   77.818901   35.072235   68.577576
H   19.193110   75.668411   80.392601
H   37.719017   79.496651   16.897297
H   53.330002   24.919094   45.294247
