100
TIME:    5.261, STEP:  5261
H   61.542397   39.560768   94.329422
H   55.178932   89.949234    9.828013
H   70.189194   52.401169   61.591381
H   82.359650   15.897060   51.790543
H   48.048752   94.449860   23.057350
H   46.439487   95.508461   99.760216
H   77.240410   16.584904    1.870071
H    6.382072   43.744846   25.146114
H   24.302513   80.469635   68.926888
H   31.070024   91.923531   13.703711
H   10.889618   77.930389   32.983631
H   55.044968   87.397530   18.445269
H    8.351669   43.447716    2.262396
H   94.588005   88.859993   57.605537
H   44.493065    0.094095   97.880066
H   89.989883   51.582779   96.331757
H    1.048701   29.945080   52.317932
H   13.570664   38.835621   17.152464
H   27.210285   99.056992   40.531429
H   50.774887   94.091591   74.525978
H   52.081520   32.468254   14.452091
H   66.757538   51.068039   71.255539
H   15.502027   51.834846   81.826447
H   30.234909   99.765106   16.345181
H   41.419952   68.936981   75.393532
H   22.563715   71.131149   95.697464
H    8.416571   23.782940    4.351536
H   88.633980    2.005399   40.673889
H   25.566719   26.410883    8.482376
H    2.724015   60.629967    1.623449
H   23.108162   93.819885   93.145363
H   97.940102    7.157979   12.226891
H   40.935116   83.562798   71.749382
H    0.390659   91.583549   50.113167
H   49.997498   61.228836   45.085701
H   29.966997   97.492378    2.886393
H   84.397186   11.866051   23.011395
H   46.544445   62.677998   93.696251
H   23.003361   66.788872   34.481918
H   67.665169   19.665840   51.959545
H   75.699768   36.700371   66.292580
H   58.791771   47.974983   49.962978
H   56.556911   95.048599   81.481148
H   43.410480    0.948452   95.129074
H    0.303324   24.320084    6.308162
H   10.212770   63.262348    4.534414
H   82.836227   10.948674   75.966774
H   56.520382   49.556564   94.098824
H   18.815453   96.734497   34.610283
H   36.216709   10.807135   15.703491
H   43.143238   61.727936    8.886336
H   60.807091   75.558456   28.687027
H   18.000256   52.513794   97.317924
H   54.856644   21.364365   63.969749
H   21.906467   19.653593   45.095455
H    0.148262    6.999661   13.529953
H   29.776466   37.742958   56.352348
H   34.310196   80.050987   78.043686
H    5.201361   61.059250    7.592766
H   11.847876   32.166149   13.975227
H   91.568207   33.911457    4.207719
H   12.193590   78.973434   57.312332
H   31.229250   48.282150   72.707886
H    4.302518   70.422043   84.303574
H   41.140793   40.656826   85.502815
H   78.154503   80.733238   57.254707
H   65.468628   30.249565   21.063541
H   16.952705   18.419538   17.708822
H   19.108923   71.764427   30.271805
H   36.973518   12.754725   90.654968
H   54.972389   37.442001   99.037209
H   40.173561   76.922531   41.807732
H   63.964340   58.074104   26.855881
H   14.394947   16.450703   90.563225
H   15.825681   36.140553    0.217016
H   50.033386   44.753868   41.930744
H   44.619854   70.558540   84.091820
H   79.151672    6.716045    4.984018
H   13.798005   38.065510   76.381416
H   41.516571   22.426636   67.681396
H   13.821320   83.709122   94.427025
H   36.065132   78.585892   46.856224
H   50.645676   95.101868   30.974745
H   12.098742   62.354294   82.905823
H   96.161568   19.805725   37.757378
H   30.209255    2.298602    7.123002
H   18.525030   20.835373   74.408279
H   40.639282   84.086594   41.031479
H   64.864120    1.248673   85.162605
H    1.195022   92.822800   12.286188
H   39.324486   57.509235   44.564495
H   67.559624   91.157104   33.770508
H   22.693560   85.377052   25.845783
H   55.722801   32.351879   81.540337
H   65.631737   78.481590   36.977360
H   28.458649   87.980927   95.711243
H   45.008659   69.598717   34.624298
H   26.176405   61.031952   71.846001
H   58.091156   59.528400    4.372322
H   65.990524   43.627621   90.931641
