100
TIME:    2.435, STEP:  2435
H   52.652985   98.719505   96.916702
H   33.536339   36.766495   31.598989
H   21.610258   49.087402   94.753258
H   81.885315   32.329124    6.691841
H   73.360977   67.933502   99.682709
H   90.259407   98.570076   19.891806
H   25.352486   25.760246   80.873024
H   28.500099   99.261139   84.620415
H   93.770988   52.178101   46.812923
H    8.299047   51.346352    3.040082
H   73.757263   64.220032    5.198313
H   62.905769   45.744537   19.602983
H   88.372017   14.386675   83.109581
H   34.514259   97.570503   42.545147
H   10.118496   52.523071   33.723724
H    3.617798   98.754974   30.915735
H   28.297073   43.027443   95.054367
H   53.179573   76.286522   15.127827
H   83.190529   80.504974   91.648361
H   26.915794   54.102787   82.118782
H   19.780273   13.804989   91.153488
H   95.826172   47.316483   11.915497
H   53.233269   74.818520   62.682159
H   92.803604   65.885712   26.229439
H   42.493767   93.056488   54.527611
H   35.493862   55.052097   60.938385
H   52.106606   41.257313   48.286297
H   27.083975   70.097282   47.260746
H   64.117493   70.014259   42.067924
H   94.362694   30.573990   76.964256
H   11.889070   40.405621   16.730782
H   19.504402   85.235603   73.843925
H   41.875866   90.326469   17.160986
H   80.985481   50.569504   69.168427
H   20.244282   74.852753   73.002083
H   84.267990   75.767082   12.269338
H   13.347535   15.360914    0.333917
H   63.345955   14.386646   94.273247
H   42.291451   28.361174    8.342875
H   33.843899   84.226830   29.614553
H   68.834602   39.733852   99.712082
H   12.777283   21.141472   17.199781
H   32.214916   78.101913   77.355461
H   23.867697   53.582474   18.815718
H   45.437099   35.817997   64.480568
H   46.672718    9.360676   93.057076
H   60.754940   57.261444   48.831406
H   56.369457   20.453939   19.241890
H   36.206886   30.782688   47.341797
H   76.954826   67.809746   13.358150
H   43.358845   34.560371   79.091095
H   23.468813   37.789242   14.208035
H   59.391243   36.127686   61.450066
H   20.305134   67.481010   39.265594
H   46.910515   71.970901   21.067762
H   96.612961    9.972881    9.733658
H   50.619251   19.286400   87.576134
H   44.741547   46.932098   50.836136
H   82.320000   41.653927   24.546606
H   98.334808   14.949644   94.353401
H   13.302090   65.331245   24.544292
H   12.490349    5.278519   85.178482
H   39.397312   41.104912   66.507736
H   10.246019   55.040291   61.033581
H   28.970737   66.365692   22.327650
H   51.759285   21.221840   90.161552
H   92.203529   32.547558   84.623672
H   12.163780   56.797607   82.609680
H   78.262901   74.822762    7.512649
H   79.716370   70.617744   96.605713
H   44.710777   29.722643   32.940830
H   73.189575   70.712143   34.900780
H   48.225388   97.862694   99.310783
H   76.604088   95.287476   58.489265
H   79.572044   32.108707   85.987167
H   83.223335   63.634834   32.085339
H   88.037231   15.496927   34.114185
H   46.381054   91.501900   48.916859
H   78.279068   46.366367   44.846626
H   80.108315   76.339645   11.143731
H   58.533222   54.472851   25.522724
H   24.024040   60.129959   83.164040
H   71.864609   47.900421   61.821598
H   17.675762   20.527681   41.019470
H   33.765762   96.572830   11.706429
H   95.247437   98.495293   10.877069
H   29.782873   26.308594   39.653580
H   95.153854   10.342436   70.423378
H    6.215162   58.595131    8.278454
H   51.052273    9.091484   11.263947
H   23.672882    4.915281   84.884476
H   58.455853   78.636040   79.919777
H   41.517872    0.595279    7.293195
H   82.579903   60.934864   90.998222
H   14.490997   31.617203   72.040611
H   95.042572   99.576485   41.678146
H   69.323532    7.420188   97.150215
H   15.805623   36.970245   17.074329
H   92.715813   47.346622   41.081543
H   90.463028   16.158348   63.160431
