100
TIME:    5.361, STEP:  5361
H   54.779701   30.390305   94.237869
H   52.417091   95.367630   16.133327
H   71.908859   59.595688   60.417217
H   82.376434   11.776806   46.308823
H   47.153061    2.465277   20.346245
H   44.888432   95.400124    9.663721
H   71.999016   23.337681    9.690263
H   98.522263   52.395817   15.964139
H   21.844322   70.855072   62.632469
H   28.337557   93.359383   17.619879
H    1.587871   81.954132   23.351177
H   51.227982   92.410042   11.327425
H    1.970459   37.400658   92.325859
H   89.636528   88.551765   65.215736
H   45.709190   91.161606   93.073547
H   85.969193   42.836441   88.030975
H   93.007301   36.559002   61.421326
H   15.708993   33.970356   13.686049
H   28.767826    3.252155   45.799526
H   48.080948   91.967567   81.334450
H   46.147377   22.512657   11.737934
H   76.344635   51.200790   62.739609
H   14.166692   51.021553   78.965424
H   20.943451    0.961397    8.918164
H   37.843292   61.006699   76.132057
H   22.107859   68.175522   86.293472
H   99.793442   19.626064    6.335846
H   80.195869    6.673042   43.979706
H   27.741096   35.483524    3.755499
H    6.558342   58.154991    9.572960
H   27.043785    2.787302   85.233681
H    4.254117    4.395280    2.969435
H   47.979336   76.246208   80.758171
H    4.616015   82.419121   45.900215
H   47.511841   53.669632   51.174721
H   38.659840    5.324907    2.571879
H   93.988861    8.203560   30.891033
H   42.411602   60.847706    0.753374
H   18.782017   64.609917   24.791346
H   58.246387   10.304075   59.827740
H   68.865356   40.131310   68.648537
H   49.804344   52.463356   54.660397
H   57.418270   95.648270   88.704659
H   37.025440    2.626974    4.906652
H   91.628716   20.374924   14.865672
H    8.922350   65.169693    4.940821
H   83.617477   16.387287   76.926552
H   56.525723   50.586533    0.286261
H   21.738274   88.452026   30.621006
H   38.314030   12.329199    8.709625
H   43.135609   52.073700    9.940528
H   65.667015   66.279587   22.121933
H   20.074688   53.093628   91.510429
H   52.541122   19.732437   68.382591
H   13.944050   28.417097   45.946133
H    0.272820    6.894471   10.125717
H   36.115730   34.857521   65.863152
H   26.864170   70.607323   75.468002
H   13.087971   65.284584   99.915810
H    5.249022   39.852764   11.130989
H   97.876190   29.261116   96.410789
H    8.644777   78.042648   52.787338
H   38.018604   41.458420   65.850586
H   11.169406   70.966782   81.589035
H   45.110367   32.669613   94.815254
H   72.011314   75.761925   63.167488
H   57.445557   33.706638   25.891804
H   10.044887   24.138914   22.489401
H   24.093206   64.579063   23.999680
H   38.999123   17.784527   90.444397
H   51.797035   30.638107   97.837868
H   31.928471   73.603745   49.129662
H   57.444260   53.127968   24.291641
H   12.193867   10.121738   84.621452
H   20.647070   36.283222    7.797873
H   52.397736   51.163322   35.202381
H   53.699596   61.891361   85.860313
H   83.849854    0.177204   10.506799
H   18.593166   37.771778   77.496834
H   36.613159   16.979248   59.066284
H   15.778069   84.743668    0.403879
H   43.569092   79.237747   38.493454
H   56.971207   96.774231   40.498516
H   18.978548   70.911423   73.771912
H   91.292488   13.550460   28.063469
H   27.907467    5.971774   14.067468
H   25.203802   13.564560   79.176651
H   42.248619   76.081543   39.992485
H   66.939316   95.680794   84.344734
H   92.354004   88.709030   15.860750
H   43.416893   62.908558   46.676311
H   74.958611   98.678162   35.675568
H   29.103777   88.376930   33.578938
H   65.387062   38.418774   88.283195
H   63.902916   69.524681   39.275333
H   36.718231   84.031952   90.546143
H   37.071037   75.337547   28.873260
H   26.543379   61.883392   70.245354
H   53.327362   59.959461   95.996391
H   72.202377   41.061855   81.298767
