100
TIME:    9.184, STEP:  9184
H   96.246002   79.805122   90.737808
H   46.836136    2.530381   57.186665
H   37.635410   34.637138   15.534210
H   83.018112   54.270012   36.756165
H   12.902666    8.895250   16.690052
H   85.600586   91.258385   88.268250
H   71.635368   81.485863    8.653942
H   98.042007   83.134506   64.950386
H   27.867622    3.287765   21.986742
H   23.911444   48.253635   67.311470
H   45.981720   35.779083   55.098747
H    5.311829   84.037178   39.201454
H   58.116470    6.093643   12.427174
H    0.345280   76.768227   56.147533
H   92.154854   49.672676    9.243095
H   32.255280    8.462749   70.688538
H   85.584297   89.421288    9.444105
H   97.460159   47.945427   81.163162
H   88.310730   63.635616   47.209522
H   45.081455   10.781462   41.622002
H   19.285133   41.921432    7.974845
H   42.859371   56.275879   37.175827
H   63.122566   19.935007   69.585312
H   65.732819   46.695526   24.990141
H    1.112710   57.824280    4.363822
H    4.302597   55.359177   26.626368
H   70.133232   60.710896   82.191818
H   57.621613   85.117783   70.348534
H   10.868230   82.336479   23.039078
H   53.148064   63.535446   13.490368
H   77.504799   45.602535   82.770248
H   45.640614   98.769684   49.055183
H   17.265121   96.537720   25.164206
H   66.147964   32.063812   84.844582
H   52.391396   64.312325   83.814880
H   70.986954    4.762398   90.553719
H   60.663261   68.197029   32.128498
H   84.400017   90.881020   70.529610
H   57.414204   81.314049   54.314438
H   98.163620   52.408546   60.613701
H    7.590515   71.305908   58.715542
H   26.236511   77.618225   48.819645
H   90.324677   18.580639   64.841423
H   92.917397   66.802528   78.696480
H   60.010971   69.549614   42.012280
H   59.577225   38.081554   20.472342
H   13.493802   24.295870   13.626945
H   56.748165   89.962219   36.831028
H   33.487366   71.830666   78.121460
H   18.555983   70.523064   41.387661
H   42.870975   82.987328   50.242676
H   51.471691   11.531624   71.163582
H   99.367226   75.260681   69.481461
H   64.006897   57.362541   37.080025
H    9.550873   63.447739   78.454559
H    5.034420    2.873047   79.981750
H   78.477127   24.546272   29.462378
H   42.195984    9.571459   76.995995
H   14.601288   26.825830    6.429327
H   52.968571   33.701092    2.395775
H   39.035618   51.471661   98.340599
H   72.959801   42.458694   79.808891
H   97.562012   80.583153    3.696014
H   73.689575   91.792145   77.795090
H   96.851059   27.332584   50.834782
H   37.161140   85.709831   89.214119
H   50.719193   65.874329   10.465290
H   45.964127   42.780647    5.250916
H   14.630402   89.882675   84.228394
H   16.547256    9.933937   82.364502
H   30.392288   70.520332   51.987068
H   16.987394   46.655663   29.229641
H    8.177887   64.030388   26.271420
H   28.034008   68.163368   57.471352
H    4.874074   41.838184   97.638809
H   42.774147   96.180779   77.962051
H    0.885600   30.901867   53.624283
H   63.453144   50.208000   21.647476
H    1.920902   26.542416   20.150324
H   49.133080    8.722982   29.711327
H   90.607552   24.295053   28.898582
H   30.456326    4.034130   18.670832
H   98.781609   60.707188    4.580086
H   81.993217   98.053688   24.601063
H    5.146866   74.405136   57.467834
H   39.922359   46.398224   79.547974
H   80.533440   35.600548   61.471748
H    3.732721   70.162758    0.354234
H   46.279545   82.822105   53.077522
H   54.350529   31.421707   52.521126
H   99.869774   69.338272   27.411400
H   57.821896   86.204254    8.520722
H   74.165649    3.079229   29.217402
H   34.863350   70.355576   46.060558
H   97.803452   27.082775   27.123682
H   52.482346   33.065125   93.083191
H   33.619225   94.729851    9.007671
H   20.550066   40.884548   94.509239
H   71.208488   76.460930   75.781700
H    9.665844   42.957478   13.015627
