100
TIME:    7.640, STEP:  7640
H    0.660614   21.396416   92.151382
H   89.478958   18.863689   59.832943
H   11.095552   23.555882   33.658024
H   82.758957   17.882511   21.387875
H   26.738024   85.137032   58.553253
H    9.540662   92.931114   35.360718
H   52.556736   77.227570   87.911102
H   19.397362   49.558361    6.713733
H   65.822090   51.738571   19.175709
H   66.084206   26.084078    6.855192
H   89.600845   73.654617    3.826400
H   64.246048    6.644350   49.105232
H   56.572304   99.547470   65.863701
H   76.794243   81.527260   38.647808
H   73.401436   87.590378   83.494171
H   94.334747   43.506714   98.853790
H    9.743755   87.297577   68.887695
H   64.445663   23.076416   34.685692
H   64.256409   98.858963   65.865051
H   86.682297   43.568417   36.499306
H   10.908279   95.630615   49.879238
H   94.834579   54.226196   68.661713
H   83.737190   32.486595   13.760428
H    9.191404   28.224825   39.660965
H   56.333809   80.270126   92.963051
H   11.584103    0.876146   71.925209
H    3.272787   24.890646   51.559597
H   87.900749   13.049064   19.309652
H   77.295158   42.252308   96.025902
H   93.945297    1.749199   90.747032
H   16.736986    7.149689    4.926558
H   48.151485   41.425457   91.991020
H    8.507772    9.503881   86.068489
H    0.909383   73.562325   49.889801
H   90.817055   81.214836   89.875259
H   36.769489   83.826172   95.406990
H   12.574754   24.742529   10.467387
H   48.216240   19.135357   61.573662
H   22.584675   14.954515    3.939894
H   43.590683   96.951691   39.133820
H   13.111849   18.330587   22.339567
H   56.356377   71.563416   69.994347
H   77.037079    9.317963   53.317875
H   91.504288   40.879539   27.734379
H   93.942543   30.457035    9.885273
H   79.506004    8.636764   14.199606
H    1.423028   40.327827   98.799889
H   56.653927   74.059509   41.297436
H   88.355721   99.706184   39.711433
H   86.143311   47.019123   49.344048
H   42.976994   32.051254   33.963013
H   76.432419   54.804096   72.518341
H   67.349770   66.308044   59.151283
H   99.770325   82.550827   68.948502
H   32.487228   28.137703   65.331879
H    3.111370    4.497185   32.543167
H   80.594360   69.097420   82.614967
H   57.165451   55.383766   16.765917
H   92.823982   61.586346   24.963219
H   54.856552   15.023412   46.310814
H   41.638042   23.276611   18.721977
H   27.759407   56.830032   49.669334
H   92.739998   85.942902    9.572723
H   67.666069   83.381378   19.712254
H   35.567154   50.650761    7.048648
H   32.010010   62.466301   97.920273
H   74.596863   12.497747   35.922100
H   52.618736   54.477348   31.438782
H   37.679016    0.824663   81.065552
H   85.189186   32.381771   85.639282
H   79.427635   75.576477   70.504890
H   44.131779   97.921288   16.055479
H    8.848482   40.406605   65.862854
H   62.018688   65.882568   49.210388
H   30.497007   39.564686   80.571686
H    6.269310   97.224754   81.853951
H   60.657917   64.540230   26.237520
H   90.921417   51.160763   36.368504
H   27.879164   31.077633    2.918734
H   24.852104   92.832024   62.728371
H   60.380623    8.321664   36.615265
H   14.596379   94.017166   47.841450
H    1.121233   34.885899   57.538925
H   75.768440   65.930542   65.620262
H   80.325455   70.992027    7.140689
H   75.458176   89.684021   72.327957
H   77.413109   47.862236   87.847969
H   78.901237   93.713440   16.363022
H   14.235265   68.789299   65.705452
H   90.859985   94.944351   97.329498
H   36.683002   85.969460   94.804611
H   43.581532   70.080429   79.097923
H   75.192261   56.758526    9.817508
H   85.642464   76.682823   41.952206
H   24.501434   65.385971   91.646149
H   24.954300   94.037292   72.832924
H   56.174950    6.123699   97.804985
H   23.530352   64.484825   25.508783
H   44.760979   69.793571    5.106441
H   13.761820   82.578415   61.755772
