100
TIME:    6.461, STEP:  6461
H   80.391434   29.515570   93.230789
H   22.038219   54.977299   85.492409
H   90.825180   38.733727   47.501415
H   82.561066   66.457123   86.013550
H   37.300461   90.635071   90.521683
H   27.826817   94.208412   18.600395
H   14.349685   97.614433   95.711693
H   12.064438   47.559956   14.965739
H   94.804161   65.094574   93.389580
H   98.286507    9.154472   60.692020
H   99.268555   26.214697   17.393623
H    9.241135   47.547077   33.027473
H   31.776993   70.880989   83.024101
H   35.170280   85.161263   48.925755
H   59.081306   92.904472   40.192783
H   41.741592   46.626381   96.721191
H    4.551870    9.316552   61.558662
H   39.232677   80.446884   75.552773
H   45.897373   49.401489    3.753842
H   18.447617   68.603310   56.227531
H   80.871826   13.003902   81.879677
H   81.802704   52.661057   69.064453
H   99.478539   42.075325   47.494171
H   18.737556   14.120577   27.223059
H   98.502632   73.770905   84.255836
H   17.093439   35.656303   82.853539
H    4.939255   73.902237   28.163458
H   87.381363   58.017342   80.339920
H   51.659248   35.284130   51.756836
H   48.736149   30.930260   97.020004
H   70.338127    1.426473   98.205254
H   73.708771   73.999313    1.136948
H   25.460907   95.765297   79.854858
H   51.094719   81.610672   99.560501
H   20.159866   70.481697   18.142931
H   34.280956   91.481682   99.112953
H   99.493385   67.919556   17.566687
H   96.948540   40.714497   78.375938
H   72.352814   40.641411   18.193377
H   54.638836    7.325716   46.372845
H   93.688507   77.874718   94.564064
H   55.716110   66.939957    9.805871
H   66.890656    2.245460   68.157890
H   66.785645   21.090414   12.458400
H   96.212105   76.972977    8.995257
H   94.725639   86.150528    9.409739
H   92.211227   76.208939   87.484108
H   56.584469   61.916183   68.347992
H   53.889305   97.350685   86.742233
H   61.389866   29.073252   31.778410
H   43.057949   45.875900   21.535633
H   19.127808   64.207855   49.911812
H   42.893444   59.471802   27.623491
H   27.070389    1.782897   16.922401
H   26.360806   24.815819   55.303585
H    1.642927    5.737378   72.679108
H    5.852136    3.116877   70.482292
H   44.955963   66.725792   47.135483
H   99.843063   11.762921   15.472132
H   32.659416   24.401875   79.844383
H   67.265465   78.104507   10.646227
H   69.604408   67.804001    3.012859
H   12.697309   66.396034   90.420288
H   86.705124   76.958908   51.725658
H   88.770920   44.815136   97.253395
H    4.437954   21.077477   28.208586
H   69.190323   71.734009   78.998978
H   34.060417   87.048378   75.075760
H   78.918037   85.540085   55.011143
H   61.280769   73.112724   88.128113
H   16.866322   55.794830   84.645119
H   41.228016   37.097092   29.665619
H   85.721588   98.720276   96.086243
H   87.977730   40.502491   19.262774
H   73.680656   37.852589   91.185318
H   78.400932   21.661858   61.184860
H   53.579678   66.585716    5.328369
H   35.529858   28.250937   71.257713
H   71.340157   34.540730   89.766426
H   82.671768   57.058540   64.300255
H   37.304382   96.123672   66.147873
H   26.125570   86.371368   46.476902
H   26.547585   15.168832   45.256828
H   94.656349   65.040916   73.303978
H   37.732613   44.746483   21.430771
H    2.588020   46.378159   90.454544
H   98.670296   33.585457   31.628866
H   59.939659   88.058167   28.587303
H   89.766464   34.433540   75.348152
H   95.099167   43.453754   55.180550
H   88.433372   22.307659   69.906296
H   56.347469   81.408478   56.631226
H   99.616165   21.380970   18.643625
H   71.697121    5.154479   62.454300
H   44.885887   70.993301   64.553040
H   27.573730   40.593231   33.730042
H   49.758354   38.463089   65.611313
H   25.806101    6.149859   49.176010
H    0.926091   64.702370    3.859872
H   40.528248   12.835587   75.332344
