100
TIME:    7.939, STEP:  7939
H   80.440178   93.977165   91.877640
H   81.221054   35.066975   78.685196
H   16.235071   45.067047   30.147877
H   82.809143    5.562950    4.998342
H   24.058767    9.103108   50.445908
H    4.903575   92.607185   64.972755
H   36.887249   97.416092   11.293308
H   95.896545   75.425774   79.261482
H   58.472099   22.990669    0.354671
H   57.917549   30.377275   18.563366
H   61.788589   85.685608   75.024277
H   52.833305   21.631405   27.821964
H   37.506126   81.448517   36.151073
H   61.989326   80.605659   61.402668
H   77.033089   60.882217   69.113556
H   82.312881   17.355164   74.034454
H   85.699806    7.074780   96.106842
H   70.837555    8.527287   24.321404
H   68.914597   11.402837   81.618942
H   78.625137   37.219868   56.856636
H   93.165215   65.865662   41.765049
H   23.500002   54.623123   43.199081
H   79.745110   30.055761    5.205400
H   81.410690   31.801729   17.454338
H   45.639595   56.558731   95.171242
H   10.174328   92.061752   43.787384
H   77.490631   12.461425   57.492970
H   62.670921   27.005377   29.192904
H   83.796547   69.380203   81.891655
H    5.410237   94.348892   14.516403
H   28.504499   33.961380   81.270668
H   67.030602   33.165272   64.311073
H   29.569052   87.627678   13.004773
H   13.543183   46.160683   37.293076
H   83.375816   58.576317    8.066309
H   62.761356    7.245233   94.467140
H   41.252354   13.791681   34.027370
H   35.859039   13.663029   82.674400
H    9.963130    8.440580   74.964363
H   15.428734   68.961502   62.659721
H   92.677582   28.589094   29.383879
H   31.158363   72.735947   85.260063
H   79.610260   11.111547   74.915047
H   72.410736   45.898155   56.967983
H   68.005424   18.661007   35.472076
H   75.646233   14.338595   15.414339
H    3.760392   56.588142    1.670696
H   56.672176   77.139114   59.797878
H   97.097237   74.941597   27.783501
H   92.421143   51.570095   28.437145
H   42.956463    3.183950   37.115616
H   90.963593   27.058199   52.890991
H   73.550041   68.041748   41.786873
H   92.844635   77.673645   82.142899
H    8.679623   54.341553   67.873123
H    3.483774    4.182666   22.364502
H   99.551041   60.469963   11.052474
H   34.901047   27.147013    9.063996
H   16.406193   74.220009    2.008755
H   35.126549   38.006390   37.806541
H   60.498913    9.371897   95.409676
H   17.147316   54.046982   36.139603
H   13.038840   65.539948   89.069397
H   88.196770   85.010147   11.593812
H   47.436180   26.769243   34.893860
H   13.643017   47.602074   15.599982
H   50.607880   22.834763   50.357464
H   31.964851   71.577141   45.732712
H   52.582024   79.340431   62.313972
H   91.261711   47.398838   85.005112
H   69.933327   55.232834   66.918861
H   19.510326   87.993553   37.971691
H   89.353119   25.617163   58.196201
H   55.437458   46.959881   31.444525
H   44.900314   40.004955    3.242081
H   13.338214   16.387833   61.734123
H   87.813194   38.660187   31.540144
H    4.968477   31.610973   52.882030
H   42.216438   30.199375    6.255543
H   10.189536   76.544334   36.969185
H   66.234154   11.414956   54.486099
H   37.032722   95.956177   22.827793
H   20.033667   39.886265   86.013245
H   96.340202   91.516357   38.312016
H   65.766907   52.287708   78.156044
H   68.578110    0.665735   93.091339
H   97.382637   26.122505    2.105423
H   83.709984   69.788330   13.262886
H   20.441238   52.141182   63.260017
H   64.425568   82.644180    8.018070
H   48.919300    2.115481    1.118984
H   65.704506   92.568390   84.796333
H   94.358810   65.730003   32.939636
H   14.539915   94.822838   62.113354
H   19.331120   38.602646   98.517090
H   49.650452   82.229858   57.389275
H   32.441460   23.281990   80.609383
H   22.953211   79.280617   19.505835
H   30.517235   71.084724   80.063103
H   32.333050   74.904495   32.951199
