100
TIME:    8.509, STEP:  8509
H   41.892815   41.705132   91.355789
H   65.478561   65.955902   14.624278
H   26.032816   86.075806   23.457317
H   82.904816   82.079155   73.756416
H   18.951155   54.791126   34.990433
H   96.065063   91.989662   21.420437
H    7.014141   35.906593   55.868046
H   51.095673   24.738764   26.925484
H   44.460411   68.186996   64.477417
H   42.349007   38.561634   40.882484
H    8.768570    8.620687   20.119905
H   31.076485   50.202724   87.249474
H    1.158870   46.947647   79.505798
H   33.765907   78.848763    4.777867
H   83.956306    9.966995   41.702545
H   59.394943   67.500694   26.719757
H   39.863930   44.774380   47.996193
H   83.022766   80.791115    4.563370
H   77.794754   35.316639   11.649867
H   63.265545   25.116045   95.664925
H   59.340599    9.118900   26.295725
H   78.146461   55.379807   94.658356
H   72.134789   25.422163   88.897217
H   28.448778   38.620575   75.122345
H   25.253353   11.353424   99.380836
H    7.486486   75.258163   90.147324
H   28.338007   88.767838   68.802231
H   14.577286   53.611057   48.035736
H   96.190498   21.095030   54.946770
H   27.265430   80.241531   59.829590
H   50.939388   85.074089   36.174080
H    3.020845   17.418430   11.543282
H   69.720352   45.923119   64.354874
H   37.628143   93.923706   13.280947
H   69.190178   15.419273   42.747379
H   12.310530   51.892693   92.675453
H   95.923088   92.916267   78.941307
H   12.300186    3.231433   22.898018
H   85.904320   96.021996   19.726963
H   61.739838   15.598996    7.504574
H   53.721436   48.145447   42.812832
H   83.121658   74.971207   14.360738
H   84.515656   14.530756   16.087788
H   36.015484   55.469002   12.700114
H   18.563412   96.174294   84.249077
H   68.288139   25.208309   17.730051
H    8.216502   87.586067    7.144668
H   56.706966   83.009933   95.066277
H   13.758324   27.734856    5.045511
H    4.387714   60.245861   88.583275
H   42.917324   48.154686   43.125595
H   18.666155   74.167465   15.473359
H   85.369957   71.346802    8.682619
H   79.641815   68.376007    7.295477
H   63.295692    4.292465   72.717636
H    4.193708    3.583081    2.960358
H   35.685356   44.022972   65.264153
H   92.458435   73.317101   94.381859
H   61.362865   98.303413   58.250908
H   97.513420   81.818329   21.594383
H   96.454422   82.863037   50.966679
H   96.916862   48.741501   10.348726
H   51.737347   26.644384   49.982788
H   27.337193   88.115158   96.118225
H   70.061584   81.244629   87.974762
H   78.627663   19.265587   49.302845
H    4.875119   42.539982   77.876389
H   92.590790    4.175648   72.982010
H   80.989838   38.383858   26.562859
H    2.838163   76.028519   83.796158
H   51.830883   16.447903   60.082619
H   72.571121   69.067772   79.751816
H   52.188660   97.421959   43.580036
H   42.891300   10.885685   97.578316
H   72.358353   40.844265   46.459690
H   26.814791   52.920792   23.381964
H   39.581863   89.324585   41.650902
H   31.745550   94.342140   84.365479
H   69.549248   28.525105   12.616684
H   82.236259   45.494225   87.863335
H   77.393059   17.311869   88.554245
H   79.804337   99.652618   75.140465
H   56.088470   49.418736   40.297550
H   35.555099   40.293068   86.251671
H   38.013153   16.632267   22.901123
H   55.459431   21.602818   32.674118
H   35.451725   84.678535   29.285240
H   92.877159   24.175163    7.352869
H   32.271976   20.404764   58.598152
H   14.028615   59.194801   28.393736
H   72.246025   32.892094   13.156638
H    7.878733   35.437119   95.659523
H   30.896687   82.829308   77.018616
H   69.626724   29.404041    0.547627
H    9.474667   87.545059   11.614571
H   96.730072   59.720703   27.948204
H   87.198174   55.992744   47.828468
H   21.852976    7.485950    8.062086
H    3.364023   73.546120   32.319584
H   67.736725   60.276394   78.041504
