100
TIME:    9.874, STEP:  9874
H   49.583405   16.529095   90.106094
H   27.780018   39.922199    0.691564
H   49.495838   84.279320    7.433796
H   83.133926   25.842318   98.934219
H    6.719767   64.201630   97.982033
H   74.903564   90.510857   56.601776
H   35.473904   28.077898   62.612835
H   43.809372   42.827976    1.595125
H   10.906105   36.947189   78.554985
H    5.062681   58.161015   94.327766
H   81.799530   63.542908   88.633110
H   78.978828   18.622677   90.087318
H   14.117542   64.327415   43.856728
H   66.180099   74.641457    8.655117
H    0.535670   88.038483   76.058372
H    4.509986   48.112839   13.412353
H   30.098763   35.058945   72.257523
H   12.216918   14.369900   57.243752
H   99.060394   92.578705   83.571609
H   26.493275   96.127655   88.600456
H   78.339066   73.230782   89.244873
H    9.010345   57.191864   78.415985
H   53.910042   14.325573   49.844284
H    1.620513   54.949921   73.746017
H   76.433823    3.102066    9.457016
H    1.047656   35.017990   61.695377
H   10.632538   32.025822   95.878952
H   99.402779   17.324650   93.153404
H   25.871883   44.938297   90.423294
H   79.606346   46.458115   68.343300
H    4.658639    7.476929   28.179642
H   89.207809   79.702454   85.178459
H   65.870033   46.053253   87.324852
H   95.301559   68.829521   55.775215
H   35.219307   12.069588   25.795088
H   30.966829   58.809460   88.384834
H   26.844406   42.928474   86.498001
H   55.879635   78.257271   19.222252
H   28.286930   66.279259   87.448769
H   33.173290   87.811859   14.900029
H   60.433395   94.984650   74.971642
H   68.086754   80.328629   84.036369
H   96.262787   22.720997   14.682486
H   48.864071   78.383949   46.159939
H    0.136689   42.291721    1.045234
H   50.675323   51.242260   23.275572
H   18.889080   61.824398   20.252516
H   56.790279   97.069000   79.524353
H   53.654861   14.686102   50.597198
H   33.038025   81.030571   93.142677
H   46.262104   16.630753   52.233505
H   85.005173   47.505524   25.869341
H   13.679247   79.261536   29.405476
H   48.029800   46.102242   67.528633
H   54.612465   23.914713   84.318970
H    5.893814    2.147234   56.492523
H   22.221092    4.636117   95.086922
H   90.817825   44.409859   59.223778
H   69.022591   55.984222   53.458752
H    7.437546   86.736481   82.770546
H   82.563721   19.384825   44.548260
H   48.470360   36.036270   48.589096
H   44.429775   33.536766   56.398148
H   21.069614   95.550842   59.063385
H   24.238220   72.223549   15.091001
H   94.774750   51.407768   30.012796
H   95.358498   89.732056   43.779369
H   98.300880   82.241707   38.236908
H   49.021904   40.303665   40.953190
H   30.560776   44.588940   80.901031
H    8.479261   23.568928   43.711617
H   60.166229   23.745506   79.805389
H   63.189209   29.901880    8.578167
H   12.846554   24.495193   16.474119
H   38.110603   42.854191   49.954868
H   59.088158   40.403683   31.534740
H   63.552681   71.181198   65.862938
H   95.870506    5.093059   59.755615
H   35.007378   24.515667   27.851969
H   15.295547   71.135567   70.267342
H    4.115318   31.433420   70.138969
H   82.232475    8.513452   60.943924
H   42.425804   72.246498   70.293579
H   29.464874   57.098953   61.579086
H   71.550217   31.242020   90.580811
H   24.040020   71.744133   27.463886
H   26.617052   85.431602   94.373512
H   14.828756   14.950177   93.205078
H   60.598392   44.403374   47.434212
H   93.344391    3.031433   77.187103
H   28.108084    6.598136   41.982933
H    8.874910   38.098251   21.665636
H   18.395786   23.783636   82.576164
H   98.107521   11.956326   97.870674
H   85.874588   65.277870   42.978889
H    9.473556    5.819292   57.444000
H   78.850792   34.326187   69.325211
H   19.218203   75.025116   80.653648
H   38.338310   79.440514   17.986217
H   52.522560   25.252693   46.546619
