100
TIME:    5.849, STEP:  5849
H   21.778326   85.639122   93.791092
H   38.939308   21.812048   46.904156
H   80.300827   94.704941   54.687298
H   82.458344   91.670746   19.558895
H   42.782089   41.580566    7.115425
H   37.319279   94.871437   57.993122
H   46.423573   56.291233   47.852497
H   60.166428   94.615250   71.158821
H    9.848351   23.936005   31.912809
H   15.004286    0.366370   36.729740
H   56.195297    1.589949   76.343697
H   32.601089   16.870502   76.591011
H   70.830093    7.889492   43.835625
H   65.473320   87.047615    2.350600
H   51.643883   47.571030   69.617737
H   66.348221    0.153970   47.523163
H   53.765358   68.835503    5.845891
H   26.144941   10.226154   96.769569
H   36.367558   23.725618   71.508926
H   34.934525   81.602333   14.559687
H   17.188759   73.931396   98.492653
H   23.129669   51.848618   21.181870
H    7.650283   47.052681   65.003632
H   75.602119    6.799288   72.676483
H   20.390430   22.304611   79.736061
H   19.883280   53.749413   40.403908
H   57.713905   99.339981   16.018896
H   39.020153   29.451241   60.112091
H   38.352058   79.759155   80.687134
H   25.269474   46.077110   48.367050
H   46.251007   46.546383   46.624672
H   35.066563   90.911118   57.792824
H   82.353142   40.541252   24.721067
H   25.236137   37.696709   25.341616
H   35.381836   16.779947   80.891251
H   81.081345   43.547783    1.037172
H   40.794182   90.331665   69.343666
H   22.243328   51.915882   35.189053
H   98.182770   53.976616   77.500877
H   12.283369   64.620461   98.221214
H   35.513428   56.874290   80.145607
H    7.292127   64.539993   78.560509
H   61.621700   98.574661   23.953808
H    5.866172   10.818197   52.619621
H   49.297855    1.121853   56.625225
H    2.624998   74.477554    6.923396
H   87.429977   42.926956   81.610268
H   56.551785   55.612778   30.480871
H   36.001640   48.035042   11.154313
H   48.548954   19.756872   74.576706
H   43.099972    4.959989   15.084983
H   89.383446   20.995621   90.085518
H   30.197918   55.923218   63.169743
H   41.241379   11.769126   89.917259
H   75.088737   71.184082   50.097439
H    0.880670    6.381143   93.513031
H   67.051704   20.776588   12.276102
H   90.527252   24.521936   62.898666
H   51.574188   85.903358   62.453529
H   73.044281   77.362122   97.251122
H   28.660400    6.567076   58.360806
H   91.325478   73.500412   30.705368
H   71.150063    8.157501   32.386963
H   44.680275   73.625107   68.342087
H   64.481796   93.694046   40.261265
H   42.032555   51.501915   92.021858
H   18.292316   50.576206   49.452347
H   76.335258   52.048130   45.818623
H   48.416508   29.514488   93.392975
H   48.884071   42.330139   89.416809
H   36.301308   97.434662   91.985085
H   91.690506   57.408066   84.858505
H   25.625893   28.990822   11.778152
H    1.452539   79.235252   55.625603
H   44.174519   36.979450   44.792252
H   63.935760   82.439262    2.366608
H   98.005882   19.593264   94.490562
H    6.776988   68.269844   37.458450
H   41.993130   36.338367   82.940071
H   12.684696   90.396553   17.024456
H   25.327913   89.792252   29.569601
H   80.195312   82.402420   97.671715
H   87.836922    4.934961   86.972687
H   52.550865   12.670500   29.201336
H   67.531380   83.026848   80.757492
H   16.674740   23.896854   47.955582
H   57.796211   78.082832    2.446337
H   50.097008   37.030628   34.932732
H   77.066269   68.509285   80.353523
H   49.208927   68.633835   33.305397
H   63.387840   89.260818   56.981976
H   11.065668   35.379608   44.972260
H   60.385635    3.017065   71.316727
H   12.551193   68.025215   21.188005
H   55.466270   25.811710   50.489445
H   77.024994   64.760956   65.340454
H   98.336601    3.342930    0.807693
H   26.987406   75.866058   61.460648
H   30.080048   62.063038   55.122902
H    2.515972   28.540405   34.287991
