100
TIME:    7.561, STEP:  7561
H    6.002970   28.640835   92.223709
H   91.660812   14.582604   54.851444
H    9.737619   17.872513   34.585613
H   82.745697   21.137512   25.718132
H   27.445921   78.804832   60.695328
H   10.765845   93.016701   27.536953
H   56.696835   71.893478   81.733200
H   25.606606   42.724094   13.967343
H   67.764061   59.334076   24.148468
H   68.241951   24.949755    3.761793
H   96.949234   70.475861   11.436068
H   67.260864    2.684615   54.728630
H   61.609856    4.329050   73.714760
H   80.705910   81.770760   32.635654
H   72.441902   94.647049   87.293732
H   97.511093   50.416321    5.411589
H   16.096596   82.071976   61.696011
H   62.756390   26.920578   37.423859
H   63.026127   95.545197   61.702984
H   88.811111   45.245792   31.120615
H   15.596252    3.495188   52.023121
H   87.260773   54.121323   75.389297
H   84.791954   33.129097   16.020788
H   16.531656   27.279757   45.528465
H   59.159370   86.534821   92.379616
H   11.956585    3.204754   79.359184
H   10.085058   28.174578   49.991917
H   94.566856    9.361609   16.698359
H   75.577400   35.084736   99.760368
H   90.916016    3.704580   84.466667
H   13.627728    0.065689   11.176750
H   43.163357   43.607914   99.304451
H    2.942990   15.283686   78.951546
H   97.571465   80.802223   53.218033
H   92.783134   87.196251   85.069153
H   29.902164   77.638626   95.655312
H    4.997662   27.635897    4.242623
H   51.481186   20.581287   55.999084
H   25.919537   16.675589   11.595409
H   51.031288    4.347360   32.917946
H   18.510733   15.620145   20.478361
H   63.014046   71.253616   65.960930
H   76.357208    8.844072   47.611904
H   96.549072   39.553551   20.010193
H    0.795456   33.573711    3.124840
H   80.525810    7.130216   13.878656
H    0.805464   36.031624   98.041664
H   56.649105   73.245834   36.409359
H   86.046089    6.248808   42.863068
H   84.484619   45.816692   54.867996
H   42.982418   39.678101   33.130051
H   72.593079   62.135006   77.704163
H   65.711571   65.849976   63.739204
H    1.599655   83.839447   65.462357
H   38.777237   21.214535   64.660446
H    3.012975    4.580285   35.232513
H   75.585739   71.376915   75.101433
H   63.048019   62.844261   18.801008
H   86.593040   58.247868   31.028111
H   60.069496    8.950986   48.557762
H   36.654736   26.950504   24.881195
H   30.563271   57.565353   53.244080
H   87.376976   91.333649   14.989990
H   62.241375   82.951035   21.857342
H   32.431190   56.960659   99.691536
H   36.863129   66.393639   93.249176
H   80.935089    9.766663   32.108074
H   58.075783   49.959343   27.662125
H   33.741432    6.501083   86.019928
H   83.584740   28.414049   85.806839
H   81.936165   80.951553   71.452370
H   50.636959    0.544361   10.264976
H   13.999647   44.314053   67.888000
H   63.757542   70.882751   53.904388
H   26.691721   39.448360   74.581833
H    4.401549   92.161888   87.169960
H   53.483112   71.377510   24.836493
H   87.209854   56.326092   32.005398
H   24.091055   31.309681    2.037102
H   28.726101   97.135460   69.534309
H   58.834038    7.504373   31.893539
H    8.668456   93.504852   54.450298
H   96.124550   33.564732   50.015144
H   70.333092   59.170406   72.836052
H   84.172028   75.934349   14.798726
H   77.275986   86.782516   66.841980
H   72.136879   53.606178   84.080956
H   77.630699    0.034792   17.182121
H   12.595559   73.187965   66.351570
H   97.844330   98.194229   94.505142
H   33.450001   81.703392   93.136276
H   37.736332   64.138794   77.592323
H   70.128189   54.388020    3.708316
H   78.007179   71.889977   36.625347
H   25.867504   72.461929   89.830750
H   18.429230   97.156982   76.913353
H   62.445671    1.590174    2.348384
H   23.682840   60.576099   27.094847
H   48.524376   69.452431   11.723728
H    8.854908   84.605972   69.365921
