100
TIME:    9.788, STEP:  9788
H   55.399323   24.415424   90.184830
H   30.154873   35.261723   95.269279
H   48.017582   78.092033    8.443413
H   83.119492   29.385736    3.648193
H    7.490389   57.308350    0.313886
H   76.236816   90.604027   48.084579
H   39.980846   22.270510   55.887524
H   50.568802   35.388142    9.491461
H   13.020149   45.215714   83.968040
H    7.411947   56.926182   90.960518
H   89.799042   60.082489   96.917381
H   82.260780   14.312180   96.208992
H   19.601517   69.533134   52.402794
H   70.438370   74.906532    2.110253
H   99.491035   95.720428   80.194603
H    7.968026   55.634689   20.551292
H   37.014351   29.370972   64.428604
H   10.377791   18.554619   60.224541
H   97.720581   88.971313   79.037766
H   28.810062   97.954315   82.745171
H   83.442429   81.791939   91.579376
H    0.765442   57.077698   85.739685
H   55.058296   15.024790   52.304733
H    9.611168   53.921112   80.132767
H   79.509750    9.922516    8.822212
H    1.453348   37.553268   69.788246
H   18.048424   35.601063   94.173019
H    6.659100   13.310460   90.311058
H   24.001919   37.135624   94.488663
H   76.308647   48.586594   61.506447
H    1.273839   99.765213   34.983688
H   83.777695   82.078949   93.139915
H   59.812210   52.345520   79.577293
H   91.667923   76.710930   59.398354
H   37.359596   18.581001   20.562468
H   23.491236   52.072994   88.655159
H   18.595894   46.077888   79.721512
H   59.433880   79.830666   13.153724
H   31.917286   68.153160   95.782906
H   41.273190   95.862549    8.133710
H   66.310989   92.033386   72.945518
H   75.334343   79.990067   79.648186
H   95.522675   22.204952    8.470758
H   54.355206   76.940468   37.751659
H    7.603486   45.695713   93.690125
H   51.784836   49.601940   22.926184
H   18.216549   57.146862   19.426779
H   56.785030   96.183228   74.203156
H   51.141205   21.808430   54.028122
H   31.233015   79.720940   99.155434
H   45.783131   24.897308   52.072098
H   80.825638   55.486008   31.514994
H   11.895399   78.762878   34.400406
H   50.021149   47.505699   63.733589
H   61.459816   16.378099   83.588043
H    5.786701    2.237698   59.420166
H   16.769325    7.117675   86.907631
H   97.221634   52.531410   61.438866
H   62.239544   52.349930   60.061367
H   13.112560   80.126648   85.216591
H   77.138855   23.384253   51.253231
H   51.522667   36.836746   52.480591
H   38.584332   39.394020   62.290176
H   15.164112   95.082367   61.398544
H   20.824715   79.091896    7.082129
H    0.057887   55.683098   24.927805
H    2.258437   86.758484   39.627392
H    4.241572   77.323372   34.125610
H   44.735420   46.483078   46.347218
H   28.814163   40.269650   81.083435
H   11.210558   29.420933   44.743050
H   67.248116   26.600975   73.501312
H   68.796478   34.155720   10.783413
H   14.739483   29.938103   21.583715
H   33.967812   42.727558   43.434269
H   57.054817   34.891552   37.321159
H   55.742134   78.624313   64.338097
H   91.830070   10.716118   55.005905
H   30.883612   24.768276   26.892054
H   19.512836   75.820320   77.676338
H    2.431858   30.543711   64.998863
H   75.778801    7.955093   68.138741
H   36.985847   70.808266   62.103642
H   23.548241   49.739822   69.434044
H   75.737625   36.621613   98.917572
H   26.019558   68.585533   21.491810
H   20.873308   91.684502   90.272713
H   13.445803   21.831949   94.096100
H   58.813725   49.191795   48.137581
H    0.947661    6.569931   74.112488
H   24.588614    1.954573   40.166771
H    2.511781   31.630159   20.027285
H   12.883092   21.203085   75.925652
H   90.281227    6.775231   91.326454
H   87.361374   72.980812   41.002632
H    2.370249    9.215193   61.885986
H   85.677147   29.390965   74.271103
H   19.384203   70.769470   82.380577
H   42.435173   79.069145   25.189846
H   47.181023   27.459579   54.831547
