200
TIME:    0.735, STEP:   735
H   24.681414   60.832195   23.803770
H   32.376160   40.104595    9.992525
H    7.762934   90.804222   69.729607
H   34.528107   82.759438   31.555569
H    9.954601   96.274948   46.541592
H   73.515381   39.379917   50.898106
H   10.530890   54.952911   59.232471
H   13.981299   10.260776    7.502152
H    7.530611   80.085304   35.643898
H   93.436279   67.965141   76.547691
H   29.446951    5.168260    8.604134
H   32.824692   55.235104   36.328014
H   23.323338    3.436220   41.004051
H   81.007599   55.295368   66.118492
H   95.723343   75.755127   41.760654
H   14.872115    5.571106   43.644810
H    7.493032   30.901796   91.398689
H   24.808245    6.963492   34.707787
H   81.494957   11.781352   49.770687
H   91.631073   72.906883   18.282070
H   64.025589    1.468179    3.162552
H   79.009056   67.734886   51.499336
H   80.182251   58.942406   37.258957
H   19.092878   92.572159   90.033920
H   24.761696   32.612133   27.747425
H   18.251337   84.304329   90.607864
H    8.481735   68.729088   68.984283
H    5.870665   90.549240    2.033761
H   31.917038   41.483955   35.439861
H   70.680916   34.024902   81.503021
H   12.715230   72.129646   16.800005
H   22.924644   75.107895    5.790352
H   15.162964   19.636665   79.225410
H   80.043877   64.117966   46.942375
H   24.233627   69.347214   30.453480
H   16.891956   38.635731   85.152634
H    0.471830   63.745140   89.671059
H    8.430405   57.559708   92.911568
H   34.750206   28.675554   55.434612
H   85.335625   37.652927   44.360443
H   80.651596   82.100166   17.954487
H   37.977524   32.727039   25.153135
H   67.789200   76.410736   68.708755
H   36.178513   87.275414   36.451622
H   45.690105   91.397575   62.226997
H   34.093945    0.956189   48.071350
H   89.302231    1.960849    7.031735
H   78.064850   65.543053   29.852554
H    6.223778    9.967753   61.523216
H   44.403488   20.035334   84.771126
H   66.432953   64.230820    8.251629
H    2.216056   44.217876   74.184044
H   65.527672   80.265915   14.397185
H   15.039426   92.629639   89.033447
H   56.246597   65.376289   74.764557
H   98.960258   60.154980   94.857178
H    4.017818   18.618629   44.344761
H   72.816696   70.086540   96.368813
H   17.736168   84.039688   19.098499
H   31.654678   93.209633   57.843651
H   48.816372    5.718822   27.773928
H   98.833092   17.597502   52.860962
H   85.084435   35.460426   68.185013
H   36.119743   65.858551   14.719486
H   79.305565   83.458450   38.171253
H   19.321949   35.792076   41.760849
H   67.685158   12.720621   96.062019
H   94.569435   92.575340   97.071701
H   34.129593   12.542462   55.714508
H   42.387558   50.257515   50.956158
H   58.248013   85.153572   86.521927
H   18.228632   10.810862   41.299843
H   93.204239   34.220760   82.920479
H   23.991940   98.084290   74.983498
H   85.172409    8.884477   44.337837
H   65.825470    1.600919   59.642857
H   93.335373   48.377872   65.143852
H    8.221234   14.983620   31.041039
H   15.294334   51.746269   23.973179
H   60.816597   87.906288   70.786591
H   64.377045   21.736046   93.784714
H   48.402374   59.688004   72.554649
H    9.068480   19.096035   75.796646
H    8.532146   78.045891    9.984568
H   21.281170    4.558272   43.754200
H   38.612621   68.455063   17.478504
H   58.040562    3.815579    2.906165
H   71.215050    0.121001   30.112509
H   80.836899   73.262016   78.953430
H   20.964825    8.234912   49.419720
H   20.493090   39.165962   78.552757
H   80.607437   92.878494    9.168613
H   70.774925   11.279413   81.631966
H   37.831192   76.649872   82.696472
H   37.667343   50.230377   88.555969
H   48.772957   38.776478    5.787906
H   86.020302   97.157784   19.647568
H   93.287308   36.130093   53.280270
H   25.801552   64.819420   54.635456
H   75.811188    5.970550   27.371256
H   31.951384   94.112610   92.248665
H    8.978527   84.145470   63.134155
H   33.440285   19.079601   37.419800
H   45.661018   68.853409    9.819802
H   24.682564   20.967625   41.135986
H    7.020039    2.537815   20.715508
H   89.106903   36.243118   53.955536
H   61.834297   53.279865   99.600807
H   85.376251   33.841351   23.068363
H   20.267897   21.158743    7.959921
H   53.707203   91.765289    1.144120
H    5.869547   75.792908   96.149551
H   48.496723   86.018791   83.168427
H   61.547386    8.725760   62.189510
H   47.331627    2.580907    9.416399
H   93.837418   91.317284    1.265164
H   12.223022   15.412806   89.950668
H   38.259708   51.360893   24.083946
H   37.660778   76.298012   59.075546
H   83.845718   56.554317   67.808594
H   45.720894   25.048809   71.299545
H   96.931175   15.753841   62.748653
H   44.170296    0.945471   38.713753
H   96.784477   49.506374   96.188316
H   62.104744   96.696381   76.441788
H   65.857338   75.895370   15.973879
H   83.082634   51.501175   51.937866
H   64.601303   91.452263   39.183216
H   98.559296   34.565826   73.609711
H   91.737617   21.803164   74.934647
H   68.590683   67.511444   22.328083
H   62.700180   90.960892   21.000301
H   90.821388    6.677533    1.057637
H   76.648674   25.694237   55.799259
H   28.879436   92.419724   33.670723
H   49.174141    0.991564   76.389084
H   69.712227   87.825890   79.980652
H   95.440529   48.765419   75.377136
H   59.251694   51.256050   71.433014
H   43.716080   85.349983   81.703293
H   75.123695   48.511951   30.899826
H   34.450592   56.050938   57.786140
H   39.093006   65.871529   82.688118
H   35.031120    8.609509   86.327095
H   63.569263   53.350410   65.254837
H   64.077026   70.503632    6.138855
H   56.438560   94.610054   43.737602
H   29.136169   54.992905   65.985008
H   78.418304   44.125179   93.023613
H   25.241156   94.079041   71.472954
H   58.773129   69.716553   47.607300
H   54.624485   93.412735   32.640148
H   99.171165   13.329716   86.088341
H   22.994913   12.504827   63.720230
H   33.241158   66.951996   69.708099
H   78.196655   44.756283   69.290550
H   64.492691   75.728813   86.616989
H   53.083668   28.717812   21.320974
H   89.726456   99.869171   84.247299
H   58.130035   36.746826   97.237122
H   58.818256   64.299255   70.254608
H   20.362743   20.491079   31.255703
H   86.526649   12.988016   37.026230
H   29.444485   34.721268   50.021145
H   54.214615   38.884571   14.688270
H   20.442091   48.689194   59.595924
H   66.376160   89.560677   57.469215
H   24.064629   53.454021   68.481613
H    0.799159   26.560455   35.688091
H   49.062389    6.724234   84.829163
H   69.908508   11.520516   35.934532
H   29.062557   47.061123   58.978176
H   47.237057   56.184013   76.496109
H   65.130585   62.698376   85.723763
H   48.431122   91.312866   75.956543
H   16.189720   50.335217   23.763592
H   30.332619   68.384773    7.614116
H    6.117112    9.672928   71.209702
H   62.942413    9.872164   63.345604
H   62.753841   59.764931   93.367844
H   72.380531    2.928047   30.210409
H   29.211922   30.710293   87.686958
H   42.843239   89.645012   15.873817
H   62.260799   26.136299   95.400810
H   91.924217   66.864693   76.357498
H    9.623025   40.400635   86.431618
H   48.588165   96.045883   10.233173
H   66.640114   88.191963   42.847340
H   92.283028   63.380798   72.200684
H   58.614979   55.580631   71.956985
H   71.466545   14.647335   75.766609
H   43.595013   98.381271   18.319437
H   15.095509   29.300253   69.146164
H   26.455872   83.286263   43.289040
H   67.907684   32.145523   20.197088
H   76.536636   11.598079   22.784632
H   12.751599   99.056801   20.174238
H   14.523618   87.568268   33.006695
H    5.312372   12.996944   55.878929
H    2.844929   18.222193   90.871696
