100
TIME:    7.720, STEP:  7720
H   95.250481   14.060254   92.078140
H   87.269485   23.199017   64.877396
H   12.470675   29.311192   32.718693
H   82.772385   14.586308   17.002804
H   26.021166   91.549385   56.384064
H    8.299970   92.844444   43.283691
H   48.364231   82.629181   94.167206
H   13.109520   56.479137   99.368340
H   63.855537   44.046921   14.140003
H   63.899147   27.232759    9.987793
H   82.159439   76.873611   96.120270
H   61.192505   10.654207   43.410652
H   51.470985   94.704941   57.913731
H   72.833061   81.280678   44.736065
H   74.373116   80.444382   79.646515
H   91.118195   36.509644   92.213165
H    3.310502   92.589325   76.170410
H   66.155869   19.183594   31.912853
H   65.502747    2.215034   70.080139
H   84.526535   41.869808   41.946083
H    6.160965   87.666748   47.708218
H    2.504257   54.332397   61.848969
H   82.669075   31.836039   11.471457
H    1.758226   29.181856   33.719193
H   53.472481   73.926132   93.553871
H   11.206905   98.517868   64.397133
H   96.374435   21.565145   53.147121
H   81.150261   16.783194   21.954000
H   79.034660   49.510609   92.244164
H   97.012924   99.769089   97.106895
H   19.885485   14.323313   98.597252
H   53.202755   39.215374   84.585014
H   14.142996    3.650858   93.275520
H    4.289668   66.230782   46.519440
H   88.826088   75.157707   94.742203
H   43.723835   90.092041   95.155525
H   20.247787   21.812536   16.770964
H   44.909966   17.671124   67.219154
H   19.207600   13.211657   96.187340
H   36.055893   89.462677   45.428375
H    7.644619   21.075338   24.224333
H   49.614433   71.877136   74.078819
H   77.725555    9.797852   59.096073
H   86.395645   42.222313   35.556202
H   87.002846   27.300907   16.731281
H   78.473289   10.162337   14.524618
H    2.048410   44.678413   99.567711
H   56.658810   74.883484   46.247387
H   90.694588   93.080208   36.519905
H   87.822998   48.236774   43.750175
H   42.971500   24.327562   34.806519
H   80.320358   47.380390   67.266876
H   69.008705   66.771912   54.505287
H   97.917297   81.245895   72.478775
H   26.117317   35.148643   66.011810
H    3.211010    4.413033   29.819778
H   85.666382   66.789070   90.223610
H   51.208420   47.828835   14.705161
H   99.133797   64.966911   18.821556
H   49.577621   21.172703   44.035423
H   46.684429   19.556213   12.484708
H   24.920052   56.085403   46.049339
H   98.170906   80.483917    4.086884
H   73.159233   83.817169   17.540012
H   38.742813   44.260990   14.498904
H   27.095764   58.489250    2.650575
H   68.178406   15.263403   39.784405
H   47.092613   59.052544   35.263245
H   41.666443   95.076378   76.048462
H   86.813942   36.399715   85.469604
H   76.887352   70.133362   69.545418
H   37.544254   95.265038   21.919432
H    3.632151   36.449696   63.811886
H   60.257824   60.819477   44.456970
H   34.350647   39.682484   86.637360
H    8.160707    2.351879   76.470650
H   67.923546   57.615837   27.656282
H   94.679962   45.930050   40.786839
H   31.715223   30.842648    3.811525
H   20.929070   88.474113   55.836281
H   61.946785    9.149301   41.396759
H   20.599457   94.535965   41.148945
H    6.181561   36.223789   65.157852
H   81.272591   72.776245   58.313610
H   76.430191   65.987144   99.385704
H   73.617355   92.622253   77.883377
H   82.756126   42.045586   91.662666
H   80.187859   87.312073   15.533554
H   15.895726   64.334953   65.051155
H   83.787231   91.653336    0.189581
H   39.956928   90.289528   96.494064
H   49.500721   76.097275   80.622581
H   80.320435   59.159039   16.004030
H   93.374397   81.536339   47.346493
H   23.118073   58.219948   93.484528
H   31.561966   90.878113   68.700844
H   49.824852   10.714610   93.204155
H   23.375933   68.443565   23.902643
H   40.949944   70.139030   98.405556
H   18.730761   80.525192   54.048862
