100
TIME:    4.066, STEP:  4066
H   42.354889   49.148376   95.423477
H   88.182930   25.193941   34.479828
H   49.645561   66.428337   75.615089
H   82.159073   65.131035   17.291334
H   58.752258   98.665337   55.458359
H   64.974129   96.803093   81.415916
H   39.871151   35.893627    8.419503
H    0.306712   40.362286   34.867413
H   53.677895   95.363968   44.147076
H   63.727440   74.765099   66.912109
H   22.045609   29.846668   48.091450
H    0.650761   27.498011    3.507170
H   84.607315   15.711044   21.003983
H   53.756279   92.543312   66.665573
H   29.959724    6.836082   55.324711
H   38.040039   56.101860   95.527283
H   97.143501   50.904118   43.532372
H   88.025352   96.970909   58.581509
H    8.597672   48.928291   77.574310
H   82.972832   19.470156   93.164848
H   22.994507   51.434826   46.884178
H   52.191727   49.481659   73.020828
H   31.457069   61.553703   16.016743
H   41.266060   85.446960    5.095820
H   84.161041   63.706528   66.568153
H   28.011976    6.457355    8.064693
H   11.462736   73.459671   80.645546
H   89.464691   46.226837    1.170237
H   99.581589   17.991398   64.970192
H   56.901505   90.205925    6.624255
H   76.079048   86.661598   87.689964
H   22.486769   40.171677   22.854042
H   56.761890   70.994469   64.094345
H   49.899994    1.098190    0.457902
H   79.701096   51.561729   72.318436
H   26.086908    3.890742    6.651882
H   69.780563   55.630356   28.850088
H   95.937813   84.541420    9.368561
H   73.446716   92.827385   50.286461
H   80.221306   31.537701   57.939655
H   57.369308   95.699509   38.138897
H   66.192215   94.341675   93.825912
H   46.263676   87.882538   95.165581
H   19.717287   80.913239   78.286255
H    3.960661   71.466187    4.048946
H   25.630688   40.469532   99.677040
H   73.500290   45.961143   64.497429
H   56.456562   37.248444   20.158928
H   83.883286   95.704193   82.280243
H   11.153728   92.622169   99.284035
H   43.234409   77.097298   96.288071
H    2.733294   86.444977    7.135637
H   93.214485   45.584778   66.723824
H   82.533226   40.865898   11.238086
H   17.052994   14.922487   34.929859
H   98.653702    8.256918   54.210571
H   54.017452   72.223930   42.697945
H   23.292961   92.903831    8.823835
H   10.954130   10.566916   99.333687
H   90.705109   40.314754   47.963875
H   16.186850   89.484520   97.379189
H   54.604332   90.096329   11.379598
H   50.101719   29.826958   54.652641
H   22.243990   63.912537   16.747013
H   93.708488   36.099148   74.217857
H   51.564278   40.139839   86.597458
H   61.345779   88.934753   63.368816
H   99.499168   50.076431   60.580914
H   59.552742   57.629501    5.219196
H   12.763926   52.651596   93.171295
H   92.917870   18.749142   13.373062
H   38.706856   16.582733   54.316059
H   41.881088   17.185986   57.498543
H   40.702816   92.074821   61.566063
H   58.208080   34.435650    9.628112
H   21.779413   68.166466   22.339657
H   36.121239   74.133347   62.958317
H   23.008404   84.855049   38.990234
H   56.490707   41.575603   63.051529
H    0.120759   87.510887   70.631706
H   90.440598   71.346298   23.004034
H   46.402237   70.781631   46.781372
H   75.053719   75.126892   17.166393
H   29.884832   60.095528   92.050980
H   54.349075   94.553322   53.599289
H   57.715626   58.407356   24.138748
H   38.713676    7.721611   17.426237
H   21.404657   79.760536   53.458122
H   40.065536   67.783836   94.936165
H    6.849105   41.990135   69.565094
H   90.420044   92.984184   19.328287
H   79.139252    1.285803   11.002327
H   46.091927   49.518127   33.434551
H   40.222408   59.867020    0.968645
H   86.291145   85.522026    9.519767
H   29.756546   35.168709   57.434776
H   39.862091    1.020193    3.349310
H   21.791067   50.857239   90.973732
H   15.018333   54.377224    4.465973
H   91.766365   74.291573    6.048957
