100
TIME:    4.400, STEP:  4400
H   19.768177   18.518799   95.117691
H   78.958382   43.293930   55.540848
H   55.386696   90.458031   71.695930
H   82.215134   51.370659   98.983284
H   55.760651   25.436907   46.401993
H   59.794079   96.441246   14.492615
H   22.366741   58.447903   34.538738
H   74.054970   69.256989    4.199858
H   45.467537   63.251328   23.122271
H   54.599724   79.560844   79.989563
H   90.977753   43.285969   15.919563
H   87.904442   44.239799   79.732460
H   63.294022   95.512886   87.815918
H   37.218346   91.513832   92.081497
H   34.022224   77.001770   39.268391
H   24.610229   26.889091   67.802673
H   70.285286   72.995651   73.937706
H   95.160683   80.728172   46.999950
H   13.799858   62.940941   95.172302
H   73.972527   12.377192   15.905039
H    3.174476   18.183132   37.820168
H   84.212631   49.925049   44.577621
H   26.997688   58.837303    6.460288
H   10.233864   89.452759   80.291031
H   72.214996   37.217804   69.034828
H   26.488638   96.579102   76.661873
H   82.662254   59.576168   87.270912
H   61.281651   61.816833   12.211028
H    6.844525   48.294216   49.181435
H   69.708847   81.939507   33.175484
H   89.222755   16.612309   61.264946
H   43.575817   30.944580   91.934029
H   80.287819   46.557060   94.183701
H   64.012024   70.489014   86.386681
H   71.399002   26.313988   92.658310
H   55.121998   30.055958    5.594947
H    1.816671   43.398911   55.168079
H   82.131569   78.430794   32.937206
H   59.349133   85.549675   17.919554
H   48.762245    0.269477   84.217468
H   34.542374    7.159962   46.007793
H   36.174210    9.331645    9.517328
H   49.140614   89.885437   19.290773
H   98.389786   86.509125   10.943791
H   74.987602   58.287910   32.631001
H   21.321651   46.840076    1.034298
H   76.109665   64.124840   67.703087
H   56.474400   40.688538   40.824974
H   93.648056   68.040741   68.958160
H   18.158779   97.703316   75.921974
H   43.208927   44.852150   99.809708
H   18.964167   55.452847   85.210022
H    0.140578   47.521423   47.324596
H   74.796837   35.415260   25.975704
H   90.460083   44.193867   37.771122
H   99.071609    7.905350   42.840424
H   75.191940   62.586571   74.464027
H   98.422745   61.361992    0.220346
H   37.295059   24.679974   73.693520
H   68.663025   65.987854   38.464119
H   37.256470   73.950584   71.336403
H   42.750023   86.987503   96.267090
H   72.777321    7.034675   31.749260
H   45.179955   65.731842    7.677906
H    6.965140    9.422935    5.321620
H   31.046028   23.535652    6.345941
H   34.548721    0.483213   79.493942
H   76.427605   69.177872   76.548042
H   76.198380   33.630386   84.272339
H   19.530718   69.451172   92.467987
H   82.312187   96.023529    9.365990
H   11.167414    5.497454   78.769768
H   20.103323    0.665890   48.933983
H   33.348660   70.939903   41.720543
H   74.311897   34.912167   34.948330
H   29.676340   89.571495   99.866013
H   66.447372   45.183933   68.865089
H   38.700329   63.016705   57.436783
H   72.507607   40.594540   66.777672
H   83.740814   69.321709   41.857231
H   96.974228   74.801682   42.966198
H   71.463203   72.962906   18.852304
H   96.183434   80.702820   48.978260
H   52.862228   88.676338   61.543922
H   38.086349   73.663033   21.221634
H   50.027653   70.675636   47.332626
H   61.020775   83.437073   33.352600
H   26.780123   53.019539   49.984901
H   46.996689   49.186943   92.204475
H   77.319931   28.247597   81.506042
H    4.088768   11.019585   26.381754
H    3.852195   26.403229   17.366732
H   67.502052   59.540268   59.263287
H   72.505112   80.125870   23.488420
H   80.516884   55.605232   17.194263
H   57.343552   21.980103   40.183342
H   13.351266   20.187389   84.140732
H   23.016760   53.701050   85.627571
H   99.107422   55.816967   76.491234
H   12.512682   65.719368   73.874802
