100
TIME:    4.423, STEP:  4423
H   18.212845   16.409576   95.096634
H   78.323158   44.540337   56.991158
H   55.782043   92.112770   71.426048
H   82.218994   50.423088   97.722664
H   55.554642   27.280458   45.778351
H   59.437336   96.416328   16.770411
H   21.161308   60.001041   36.337368
H   72.247215   71.246887    2.088047
H   44.902153   61.039978   21.674505
H   53.971169   79.891090   80.890106
H   88.838348   44.211430   13.704090
H   87.026711   45.392677   78.095268
H   61.826340   94.122063   85.530518
H   36.079506   91.442940   93.831696
H   34.301933   74.947296   38.162716
H   23.685383   24.877434   65.893494
H   68.435768   74.517029   76.031487
H   95.652367   79.608986   46.202587
H   14.158092   63.905884   96.384140
H   73.352745   11.888754   17.470987
H    1.809633   15.893345   37.195999
H   86.417664   49.955582   42.618958
H   26.690605   58.650246    5.802209
H    8.096916   89.728607   78.582947
H   71.392365   35.393730   69.204689
H   26.383791   95.899307   74.498955
H   80.679024   58.619999   87.727150
H   59.341061   62.890396   12.971322
H    7.344676   50.380978   48.094185
H   70.590790   81.370262   35.003944
H   90.127861   18.674767   59.445259
H   45.028057   30.309181   89.804802
H   81.907814   44.874245   96.255722
H   64.983810   68.381195   85.417702
H   70.827301   24.575371   94.058960
H   57.121372   31.857395    5.522585
H    4.022647   42.556625   56.980396
H   81.180840   78.010002   34.560184
H   58.378223   85.048515   15.690744
H   46.595993   98.116371   86.026978
H   32.970459    7.949100   46.549664
H   34.107101   10.363927   10.597866
H   49.338726   90.023361   20.952093
H   96.921051   86.894470   13.192605
H   72.992439   57.380524   34.599140
H   21.024921   47.278767    1.127799
H   76.289352   65.375633   67.923836
H   56.475628   40.925430   42.248085
H   94.320480   66.135773   68.040771
H   18.641163   98.053215   74.313210
H   43.207172   42.631676    0.052208
H   20.081861   53.318531   83.700226
H    0.617665   47.654785   45.988697
H   74.264091   35.039917   26.990570
H   88.628815   46.209560   37.966778
H   99.100388    7.881156   42.057449
H   76.650146   61.922920   76.651512
H   96.710098   59.189949   99.627914
H   39.108955   25.651848   71.927879
H   67.145157   67.755600   37.809944
H   38.707306   72.880882   69.543037
H   41.933708   86.773422   95.226517
H   74.338707    5.465173   30.172081
H   46.759415   65.857132    7.053387
H    7.878077    7.585959    7.463569
H   29.633095   22.392250    7.705837
H   32.703415    1.278357   80.604355
H   74.838844   70.493240   77.647575
H   77.344589   31.977753   82.829926
H   19.996695   70.607910   92.419556
H   81.581856   94.458633    9.090054
H    9.271000    4.734111   80.453636
H   18.603617   99.528206   48.344208
H   32.842236   69.484505   40.353935
H   75.420906   34.944981   36.691860
H   30.220140   91.045494   98.318314
H   68.535538   43.190350   69.271843
H   39.780910   61.512699   58.707054
H   73.610649   40.526981   67.034218
H   82.612854   68.069160   39.875755
H   97.424149   75.039627   44.340878
H   73.188835   73.113113   16.928999
H   97.638130   81.087463   51.168728
H   54.444496   90.644478   59.443298
H   36.966461   72.224480   18.992035
H   49.498241   71.520378   48.929810
H   62.556892   81.764786   34.449326
H   27.150290   51.178093   49.745728
H   47.473984   47.906319   92.016365
H   75.286514   27.301254   82.328323
H    5.030043   12.261517   26.867472
H    5.554115   28.132896   17.804983
H   68.976402   60.230415   61.041912
H   74.728043   81.520905   25.039190
H   80.119255   53.544968   17.722710
H   59.243256   21.071926   38.995369
H   11.525657   21.507320   82.817993
H   23.101164   53.896881   85.259422
H   98.011749   55.916111   74.564857
H   13.941277   65.129066   71.659241
