100
TIME:    9.666, STEP:  9666
H   63.649811   35.603157   90.296524
H   33.524063   28.650349   87.577263
H   45.920521   69.314720    9.875660
H   83.099014   34.412224   10.335586
H    8.583597   47.529510    3.621653
H   78.128174   90.736198   36.002045
H   46.374416   14.032123   46.346966
H   60.157761   24.833958   20.693336
H   16.019142   56.945480   91.647026
H   10.744627   55.174442   86.183723
H    1.147192   55.173523    8.669222
H   86.916573    8.197147    4.893021
H   27.381027   76.917992   64.526321
H   76.479172   75.282570   92.826393
H   98.009224    6.618050   86.062279
H   12.873734   66.305222   30.678711
H   46.824837   21.301987   53.322464
H    7.768797   24.491173   64.453201
H   95.819916   83.853851   72.606033
H   32.096668    0.545521   74.438835
H   90.682083   93.936836   94.891113
H   89.069183   56.915741   96.129120
H   56.687172   16.016771   55.795181
H   20.946747   52.461639   89.193039
H   83.873276   19.598038    7.921676
H    2.028865   41.149826   81.268562
H   28.568634   40.672916   91.752975
H   16.952917    7.615911   86.278893
H   21.349178   26.066965    0.255795
H   71.630516   51.606064   51.807655
H   96.472664   88.824753   44.635941
H   76.074509   85.450256    4.434035
H   51.218262   61.271759   68.586571
H   86.513229   87.891533   64.538155
H   40.395821   27.818123   13.139539
H   12.886324   42.516613   89.038643
H    6.894528   50.545662   70.108353
H   64.476036   82.062691    4.544836
H   37.067326   70.811485    7.605469
H   52.763744    7.283740   98.535049
H   74.648972   87.846710   70.071251
H   85.615807   79.509781   73.423088
H   94.472748   21.472889   99.658745
H   62.144955   74.892738   25.823635
H   18.195837   50.524632   83.256012
H   53.358795   47.274975   22.430540
H   17.262493   50.511288   18.255384
H   56.777584   94.926666   66.654480
H   47.575363   31.912113   58.895203
H   28.672422   77.863091    7.685687
H   45.103657   36.624283   51.843124
H   74.896530   66.806931   39.523506
H    9.364824   78.055481   41.486481
H   52.846085   49.496651   58.349922
H   71.173500    5.686401   82.551147
H    5.634750    2.366030   63.573334
H    9.035213   10.638111   75.304451
H    6.305940   64.052681   64.581200
H   52.617077   47.194305   69.427330
H   21.163013   70.749908   88.686562
H   69.443115   29.057859   60.764935
H   55.852684   37.972305   58.001083
H   30.291862   47.703148   70.648636
H    6.786356   94.417786   64.711014
H   15.982299   88.835365   95.720741
H    7.552234   61.748100   17.714212
H   12.047039   82.540161   33.737377
H   12.669143   70.346199   28.293304
H   38.654594   55.249222   53.999210
H   26.336411   34.142284   81.342194
H   15.085188   37.722614   46.206245
H   77.295021   30.651756   64.558319
H   76.750977   40.190006   13.911785
H   17.424801   37.659100   28.832212
H   28.091139   42.547916   34.184116
H   54.170311   27.072311   45.529762
H   44.662056   89.183151   62.174164
H   86.098289   18.692955   48.267944
H   25.033621   25.126629   25.530313
H   25.495464   82.466133   88.186775
H    0.043675   29.281565   57.707085
H   66.623589    7.163111   78.345741
H   29.268866   68.767982   50.484638
H   15.154878   39.300125   80.577415
H   81.677902   44.253128   10.743928
H   28.827740   64.104729   13.019713
H   12.725206    0.554904   84.455299
H   11.483938   31.594500   95.360107
H   56.281986   55.984673   49.135384
H   11.734292   11.589661   69.750824
H   19.595877   95.366684   37.590355
H   93.485016   22.454935   17.703112
H    5.062816   17.542303   66.491203
H   79.178810   99.425400   82.042793
H   89.470535   83.908241   38.199104
H   92.293533   14.032709   68.187408
H   95.361046   22.390057   81.287369
H   19.619692   64.732391   84.830406
H   48.247002   78.542320   35.408947
H   39.603493   30.590279   66.584381
