100
TIME:    7.863, STEP:  7863
H   85.579826    0.946739   91.947220
H   83.320053   30.948414   73.893448
H   14.928705   39.599213   31.039951
H   82.796387    8.694344    9.164251
H   24.739782    3.011432   52.506638
H    6.082232   92.689522   57.446007
H   40.870129   92.284561    5.350010
H    1.870002   68.850456   86.239204
H   60.340324   30.298027    5.138636
H   59.993355   29.286028   15.587368
H   68.857925   82.627563   82.345261
H   55.734215   17.821896   33.231590
H   42.352379   86.048920   43.703411
H   65.752449   80.839912   55.618824
H   76.109993   67.670914   72.768829
H   85.368607   24.002380   80.343048
H   91.811256    2.048126   89.188263
H   69.212860   12.225323   26.955879
H   67.730576    8.214330   77.614609
H   80.673111   38.833546   51.682198
H   97.675163   73.431335   43.827518
H   16.213808   54.522232   49.671188
H   80.759819   30.673574    7.379922
H   88.471909   30.892550   23.098732
H   48.357857   62.586105   94.609962
H   10.532665   94.302231   50.939636
H   84.043915   15.620795   55.984821
H   69.083763   23.457952   26.680773
H   82.144020   62.484821   85.484306
H    2.496155   96.229874    8.474823
H   25.513426   27.146385   87.283546
H   62.231899   35.264851   71.346779
H   24.215734   93.188286    6.158093
H   10.331918   53.125648   40.494919
H   85.267235   64.330589    3.442211
H   56.154728    1.292351   94.706032
H   33.963261   16.575174   28.038847
H   39.000000   15.053905   77.310936
H   13.171206   10.096296   82.329414
H   22.587074   76.076065   56.679893
H   97.871735   25.981581   27.593351
H   37.563210   72.437912   81.379814
H   78.956207   10.655653   69.425179
H   77.263947   44.622520   49.537411
H   74.598137   21.659328   28.968521
H   76.627312   12.889300   15.105577
H    3.166279   52.455086    0.940794
H   56.667538   76.356339   55.095425
H   94.875313   81.236275   30.815163
H   90.825439   50.413326   33.751129
H   42.961681   10.521460   36.314285
H   87.270050   34.110516   57.879883
H   71.974052   67.601074   46.200569
H   94.605011   78.913330   78.789139
H   14.731060   47.681000   67.227188
H    3.389116    4.262610   24.951721
H   94.732620   62.662895    3.824120
H   40.560226   34.324394   11.021661
H   10.412159   71.008888    7.843334
H   40.141533   32.164562   39.968163
H   55.704845   12.906130    1.335473
H   19.844704   54.754379   39.578598
H    7.879186   70.725983   94.280945
H   82.978264   84.596146   13.657296
H   44.419304   32.839275   27.816236
H   18.311550   51.380272   11.106124
H   56.705414   20.207245   46.688274
H   37.214668   67.230705   42.099472
H   48.793968   84.801308   67.080414
H   89.718193   43.581791   85.166306
H   72.346596   60.403793   67.830360
H   25.768764   90.516991   32.401226
H   94.308380   29.376516   60.145023
H   57.110279   51.769604   35.960236
H   41.239243   39.893047   97.479752
H   11.541453   11.516937   66.848000
H   80.910851   45.238403   30.192320
H    1.398222   36.580151   48.684612
H   38.572182   30.422611    5.407391
H   13.916564   80.684349   43.516670
H   64.746300   10.628701   49.943680
H   31.330021   95.463318   29.185963
H   15.226552   38.615269   78.775757
H   91.111259   85.012939   45.253208
H   69.467407   57.041767   85.523415
H   70.326889   97.874344   87.813690
H   92.306770   31.648323   98.481438
H   82.487694   75.869629   14.050880
H   18.863800   56.372810   63.881599
H   71.144684   85.770645    5.301331
H   45.809071   98.011650   99.513962
H   60.081272   86.852386   83.347908
H   89.487045   63.449955   27.062441
H    7.194876   90.211998   56.988781
H   20.645313   45.410477   96.770630
H   43.373169   85.231079   61.314751
H   38.474052   18.920769   84.980171
H   23.099909   75.519814   21.031668
H   34.137718   70.756538   86.428520
H   27.612619   76.855057   40.272762
