100
TIME:    8.386, STEP:  8386
H   50.210930   52.984886   91.468399
H   68.875626   59.290615    6.868726
H   23.918566   77.226547   24.901070
H   82.884171   87.146599   80.497993
H   20.053324   44.932133   38.325562
H   97.971924   92.122917    9.239333
H   13.460370   27.600679   46.249287
H   60.763229   14.098029   38.219315
H   47.483986   80.012909   72.219345
H   45.708534   36.795536   36.066536
H   20.209732    3.671619   31.967871
H   35.771378   44.037334   96.004890
H    9.002300   54.392097   91.729599
H   39.856224   79.227882   95.417656
H   82.462349   20.953964   47.617378
H   64.340393   78.258690   36.929962
H   49.754829   36.639256   36.799019
H   80.393326   86.776329    8.826921
H   75.878510   30.156292    5.170056
H   66.579819   27.728125   87.290504
H   66.639595   21.364285   29.634138
H   66.354332   55.216522    5.132906
H   73.777016   26.422045   92.416275
H   39.877594   37.149139   84.256882
H   29.652176   21.108253   98.472450
H    8.066662   78.884201    1.721829
H   38.944756   93.880325   66.362350
H   24.955660   47.869831   43.969582
H   93.516014    9.935734   60.761192
H   22.549423   83.285751   50.051300
H   46.098103   74.043953   45.905449
H   95.254570   20.816433   22.930016
H   61.056583   54.922523   53.274063
H   32.431198    5.195882   18.462408
H   72.251289   24.732109   35.263515
H    1.618692   42.257980   93.062080
H   84.125328   97.420662   69.249352
H   17.383881    5.482477   14.218612
H   91.095634   98.702110   31.646248
H   73.325333   27.113832   97.827271
H   62.127762   43.925392   39.915005
H   93.487396   74.488861    8.081330
H   83.457123   13.792927    7.203573
H   43.869083   53.403549    0.674303
H   29.232727    1.026092   73.723808
H   69.875938   22.862740   17.230345
H    7.254770   80.897041    5.963554
H   56.699459   81.743073   87.455727
H   10.163254   37.921356    9.952251
H    1.805899   58.373722   97.182915
H   42.925770   60.029396   41.828705
H   12.688108   85.580475   23.547939
H   82.819344   70.633606   15.826307
H   82.490845   70.382339    1.868151
H   73.088997   93.513550   71.672241
H    4.040512    3.712465    7.147568
H   27.888062   47.572060   53.565865
H    1.617325   84.932808   97.549950
H   51.661526   93.106468   67.693817
H    5.630223   72.364731   25.092796
H   88.695602   88.583618   60.556347
H    1.282385   49.886368   15.914234
H   43.386387   35.037872   58.417267
H   18.890984   87.445129   99.457108
H   65.179947   91.067963   76.520462
H   86.183784   25.380302   42.030125
H   14.743929   38.288021   71.938095
H    1.087230   97.141045   67.101898
H   74.860107   47.221855   34.277573
H    0.340042   69.849991   84.057037
H   55.737507   24.817162   61.557808
H   82.700378   73.151756   70.735519
H   60.208359    3.506314   46.734051
H   45.598629   18.670311    4.886457
H   66.433197   40.663151   37.133717
H   23.906641   45.037163   31.658319
H   28.410812   99.969971   39.469086
H   25.967257    2.384365   77.571350
H   63.650421   28.886395   11.244017
H   88.268394   52.194511   98.459923
H   74.985085   16.039377   81.202698
H   70.574081   98.854965   85.431129
H   48.308067   47.361729   28.583309
H   27.093136   29.767698   97.486382
H   44.002121   24.326336   34.824272
H   58.290630   17.084816   24.132660
H   27.236834   93.621635   23.420143
H   90.898979   34.017830    8.628235
H   29.719067   27.252851   59.604134
H   24.903486   64.255630   23.996790
H   67.212364   26.250927   10.559104
H   98.777977   26.186512   93.315361
H   23.012119   79.139458   67.506836
H   57.739372   21.941761   92.253929
H   11.601585   98.562057    8.788298
H   86.570786   64.577942   34.301277
H   96.961449   48.933983   54.902245
H   22.090395    1.399951   10.531527
H    9.223348   73.014977   42.622448
H   60.096622   63.432285   89.889938
