100
TIME:    7.619, STEP:  7619
H    2.080731   23.322147   92.170609
H   90.058945   17.725666   58.508747
H   10.734583   22.045113   33.904598
H   82.755432   18.747765   22.538956
H   26.926199   83.453789   59.122665
H    9.866343   92.953865   33.280937
H   53.657269   75.809647   86.268875
H   21.047920   47.741657    8.641908
H   66.338310   53.757629   20.497581
H   66.657784   25.782549    6.032897
H   91.554214   72.809631    5.849222
H   65.047455    5.591762   50.600060
H   57.911400    0.818553   67.950691
H   77.834053   81.591988   37.049641
H   73.146370   89.466202   84.504181
H   95.179092   45.343445    0.596974
H   11.432486   85.908493   66.975983
H   63.996731   24.098282   35.413559
H   63.929279   97.978088   64.758591
H   87.248184   44.014301   35.069527
H   12.154449   97.721130   50.449131
H   92.821289   54.198318   70.450058
H   84.017570   32.657387   14.361283
H   11.142611   27.973604   41.220680
H   57.084908   81.935425   92.807961
H   11.683117    1.495140   73.901329
H    5.083647   25.763590   51.142872
H   89.672752   12.068854   18.615511
H   76.838539   40.347004   97.018608
H   93.140045    2.268984   89.077568
H   15.910501    5.266595    6.587992
H   46.825527   42.005604   93.935097
H    7.028526   11.040285   84.176643
H    0.022057   75.486855   50.774521
H   91.339684   82.804832   88.597687
H   34.943974   82.181381   95.473000
H   10.560582   25.511652    8.812703
H   49.084137   19.519718   60.091812
H   23.471157   15.412016    5.974914
H   45.568565   98.917557   37.481499
H   14.546995   17.610090   21.844816
H   58.126137   71.481064   68.922173
H   76.856354    9.191992   51.801098
H   92.845306   40.527061   25.681114
H   95.764214   31.285519    8.088196
H   79.777092    8.236300   14.114290
H    1.258866   39.185799   98.598335
H   56.652645   73.843216   39.998074
H   87.741768    1.445377   40.549210
H   85.702393   46.699490   50.812439
H   42.978436   34.078644   33.741592
H   75.411835   56.752819   73.896851
H   66.914299   66.186279   60.370857
H    0.256652   82.893372   68.021805
H   34.159256   26.297367   65.153397
H    3.085214    4.519275   33.258057
H   79.262955   69.703362   80.617699
H   58.729172   57.366936   17.306890
H   91.167656   60.698902   26.575405
H   56.242271   13.409223   46.908104
H   40.313366   24.253216   20.359238
H   28.504738   57.025497   50.619583
H   91.314384   87.375885   11.012756
H   66.224113   83.266983   20.282467
H   34.733543   52.328075    5.092956
H   33.300079   63.510277   96.678589
H   76.281708   11.771763   34.908245
H   54.069344   53.276360   30.434860
H   36.632317    2.333584   82.382538
H   84.762688   31.327059   85.683823
H   80.094460   77.005295   70.756752
H   45.861004   98.618553   14.516231
H   10.217779   41.445293   66.401184
H   62.480915   67.211731   50.458160
H   29.485476   39.533764   78.979446
H    5.772816   95.878929   83.267067
H   58.750690   66.357735   25.865095
H   89.934799   52.533825   35.208691
H   26.872198   31.139317    2.684376
H   25.881901   93.975975   64.537544
H   59.969505    8.104409   35.360123
H   13.020602   93.880981   49.598232
H   99.792915   34.534702   55.538933
H   74.323601   64.133545   67.538383
H   81.347961   72.305809    9.176370
H   75.941391   88.912735   70.869659
H   76.010567   49.389107   86.846611
H   78.563499   95.393799   16.580757
H   13.799394   69.958565   65.877205
H   92.716583   95.808243   96.578720
H   35.823597   84.835442   94.361130
H   42.027744   68.501007   78.697701
H   73.846115   56.128391    8.193545
H   83.612831   75.408775   40.536205
H   24.864567   67.266922   91.163574
H   23.219788   94.866577   73.917595
H   57.841850    4.918584   99.012703
H   23.570887   63.445744   25.930395
H   45.761375   69.702888    6.865467
H   12.457451   83.117386   63.778835
