200
TIME:    0.882, STEP:   882
H   29.198339   60.344334   26.317379
H   33.686096   42.250626   15.960279
H    4.681905   97.238388   76.970146
H   39.482986   84.477608   27.711555
H    8.393865    0.000641   44.428085
H   68.733215   35.390106   46.547165
H   12.660659   54.848610   62.077770
H   17.275488   16.608025    2.284357
H   13.500181   77.881516   32.057835
H   88.261581   65.905037   70.749428
H   34.570621    8.308378   13.249474
H   33.432556   59.158745   43.332474
H   26.931271    8.315332   34.979240
H   74.059776   55.915569   73.202019
H   88.626358   76.886742   41.398964
H   10.587484   99.514389   40.473709
H   14.411325   37.785812   84.264969
H   21.317791   14.030616   32.090717
H   86.385910    6.459574   51.934662
H   92.098747   70.888145   12.583537
H   65.789742    8.806072   96.427872
H   75.736458   73.353706   45.834534
H   75.780281   57.873596   33.731773
H   22.206501   93.912376   89.572975
H   31.151001   38.524231   22.502071
H   18.129652   90.828217   85.752800
H   11.328576   71.678688   74.894699
H    9.244481   96.613304    2.420545
H   38.108395   37.015816   34.579094
H   64.038147   37.963123   76.418045
H   12.523310   78.271095   16.979729
H   20.251499   78.553207    9.409683
H   11.611107   22.799635   81.020966
H   75.178719   64.278343   49.511780
H   17.178980   63.273125   29.335043
H   12.086519   35.284592   86.834435
H    4.690828   60.572357   90.774635
H    1.159228   61.362225   86.302444
H   29.309708   23.411976   58.702164
H   83.925873   37.048428   38.618256
H   80.695335   75.233093   22.833664
H   45.294327   29.644323   20.794064
H   65.142410   73.033836   74.167198
H   35.851028   94.415016   41.708752
H   50.712837   95.882538   67.531792
H   32.025299   97.130638   49.670078
H   92.072388   94.758575   10.254447
H   74.486076   65.540810   24.567947
H   11.908790    4.389448   61.629200
H   39.142994   20.698713   78.552292
H   62.936050   62.370216    2.425961
H   96.597069   46.748028   77.344490
H   69.493370   76.062920   16.316746
H   12.851479   95.731766   91.210320
H   50.024399   62.107056   70.010429
H   97.076103   56.533028   99.670746
H    3.598333   19.174904   42.767902
H   74.422714   73.503815   93.715294
H   14.634321   86.879379   22.653721
H   28.254787   92.384193   55.126205
H   48.340286    2.850827   23.478783
H    1.475105   17.945734   53.988091
H   89.134247   38.505356   63.225559
H   39.681694   66.068275   18.001617
H   81.668610   85.649902   44.182606
H   13.555429   41.502861   44.403152
H   62.194191    9.619756   99.099098
H   93.746239   92.909554   99.982048
H   39.358124   14.528956   53.853905
H   41.541370   52.819630   50.948307
H   58.183525   87.696060   90.453979
H   14.097229    6.947062   40.270847
H   97.869766   36.762127   77.998123
H   28.781115   94.853188   79.263222
H   86.962357   11.264064   37.425903
H   69.541069   96.411491   58.682274
H   92.714050   53.850334   63.064297
H    2.776611   17.660410   26.014381
H   16.415014   58.291466   20.707590
H   58.601032   87.086456   63.815216
H   70.616066   19.251596   91.602234
H   54.866261   57.044018   68.010246
H    8.494962   20.708502   71.495613
H    3.738548   82.852730   14.775565
H   16.046471    6.112770   39.588310
H   42.753838   63.311768   14.418507
H   64.628883    4.121895    3.243182
H   69.992592   94.650208   35.656845
H   85.336441   73.619781   79.482788
H   20.228546   14.824268   47.802486
H   14.331135   40.434963   77.898911
H   79.583488   94.168243   12.376163
H   77.758636    9.621525   77.445328
H   31.239420   71.368629   86.732826
H   41.391914   48.241920   94.678352
H   42.685341   42.063095   98.876274
H   88.014366   92.072807   25.978554
H   95.846992   39.550373   56.038734
H   22.470634   63.346863   55.156403
H   78.367134    8.359028   27.407145
H   38.510036   98.177002   99.170692
H   14.444400   86.369446   62.323296
H   36.487457   13.707295   39.473866
H   52.724358   69.124817   15.657599
H   24.487700   19.035805   45.901890
H   12.839903   95.340912   13.833058
H   89.469810   36.932117   51.904743
H   60.967922   58.923920   93.916939
H   89.112038   31.985794   30.176563
H   24.990061   19.109163    8.679377
H   55.641266   90.487877    1.247545
H   11.771692   79.489441   97.823982
H   45.943581   87.724625   79.970970
H   61.049431    5.556676   58.399330
H   42.426094    8.702020    4.262029
H   87.838402   87.017372    7.896916
H    6.179006   17.482813   91.664352
H   37.513897   58.596386   21.145561
H   43.243149   81.817017   51.810894
H   87.725060   59.488216   73.292831
H   47.255135   26.025654   66.482613
H   90.588974   12.271519   67.072281
H   47.714302   94.745682   43.074787
H   94.618820   44.216721   89.750786
H   57.706139   93.057045   71.579994
H   71.242294   79.917831   13.135815
H   79.428719   52.187546   46.260727
H   61.385902   92.605186   40.424740
H    0.368321   29.244770   70.259727
H   98.862640   21.106419   77.439003
H   74.524651   62.262726   27.945782
H   57.057808   92.418869   24.466923
H   90.341377   13.829191    2.151486
H   69.440659   29.463108   57.608273
H   36.141285   89.761719   26.915802
H   45.258911    0.802903   74.223427
H   69.955597   88.200478   87.298576
H   96.694389   44.175594   73.054466
H   63.094025   53.311798   71.398247
H   43.795708   78.300102   77.618713
H   82.401245   44.189049   35.648346
H   27.683514   60.517395   61.212948
H   34.367477   68.576637   77.729874
H   28.295265    3.288318   88.763039
H   70.478958   48.475159   70.061676
H   69.463692   73.036026   99.098381
H   59.915276   93.966301   42.685055
H   25.122246   49.521004   65.141624
H   82.348114   37.987656   91.562271
H   29.927151   95.683937   65.971893
H   53.592262   72.213058   46.497555
H   60.812477   89.344978   28.033501
H    6.000188    7.833141   80.928223
H   26.880703   15.879063   60.087063
H   39.070263   70.834702   72.367226
H   82.560493   45.120777   73.813644
H   66.031418   80.137512   88.357590
H   55.173622   26.359253   24.764885
H   82.998451   99.315140   78.795586
H   56.481960   30.748873    2.878146
H   60.262215   58.327156   66.346107
H   13.460623   19.729286   29.982216
H   92.854271    6.578820   36.965107
H   34.840256   39.039684   43.732216
H   52.807106   43.872536   16.132635
H   22.974766   44.011890   58.792355
H   63.844887   87.183052   59.027569
H   24.193043   60.142212   74.560257
H    2.797007   26.082407   35.340981
H   55.770767    5.614909   83.173798
H   67.100220   13.268687   35.922195
H   23.984030   41.600998   59.429588
H   50.077309   49.867046   72.359940
H   63.320236   59.182968   89.134308
H   41.598816   90.207047   69.044609
H   20.725151   51.133179   23.914436
H   28.822491   72.977402   13.762856
H    7.419969    9.813118   73.089371
H   59.182514    6.454749   61.626873
H   55.761719   61.341789   95.441536
H   69.696732    8.196172   26.792854
H   32.176926   30.889736   93.053436
H   36.074299   89.489120   18.786407
H   65.461922   26.408268    0.808766
H   93.825195   60.488846   75.751877
H   12.700338   41.641037   87.167336
H   53.706787   93.528069   13.490351
H   59.577896   94.418648   47.991196
H   88.025734   64.036293   73.880722
H   61.288124   54.780987   73.814224
H   78.488388    9.783859   74.716866
H   42.389938    2.376231   16.447058
H   18.360779   32.797501   72.514091
H   23.887869   89.152939   46.251537
H   62.862953   25.579853   19.716236
H   76.895523   11.958788   20.770660
H   13.728724    3.065413   25.135847
H   10.251324   84.646706   28.860992
H    3.352105   13.408262   49.304573
H    1.311705   13.241877   88.829407
