100
TIME:    9.346, STEP:  9346
H   85.290436   64.948860   90.589493
H   42.361954   11.309206   67.401482
H   40.420033   46.292259   13.632374
H   83.045303   47.595818   27.876066
H   11.451029   21.880096   12.297800
H   83.089111   91.082878    4.311217
H   63.144436   92.424126   21.322552
H   85.309128   97.150314   50.075661
H   23.885353   87.712082   11.789438
H   19.486082   50.579716   73.654427
H   30.912872   42.297546   39.493492
H   99.128487   92.157448   27.670162
H   47.786301   96.288109   96.328079
H   92.323898   76.268898   68.475807
H   94.122505   35.202034    1.452697
H   25.741165   94.293503   57.241272
H   72.557259    0.137065   24.191603
H    0.925479   40.062462   75.546951
H   90.834564   70.431000   55.743839
H   40.717274    7.341162   52.651726
H    9.671618   25.793604    3.577455
H   58.390469   56.490936   23.380020
H   60.959633   18.618090   64.950455
H   50.680180   48.633514   12.958591
H   95.318588   44.976456    5.559616
H    3.538417   50.583420   11.381395
H   56.163696   53.976139   85.405319
H   43.953110   92.679398   75.702721
H   14.391030   97.034538   15.381676
H   59.360008   59.525986   26.368473
H   83.879890   60.128796   69.953323
H   55.869434   94.293030   34.058022
H   28.676758   84.684845   39.758446
H   72.992722   17.217438   78.019600
H   48.359688   52.046638   93.670441
H   85.069504   17.451403   90.044502
H   76.201508   62.264412   44.893513
H   77.703575   87.917183   81.962257
H   50.575626   77.784142   38.615250
H   82.904434   37.242058   73.359268
H   96.519089   76.865265   62.532192
H   12.583998   78.253510   57.089466
H   91.718842   19.552723   76.543510
H   82.574867   69.521645   94.536568
H   45.959320   63.159527   55.876064
H   57.487213   41.171459   21.130491
H   14.760354   33.106503   15.182713
H   56.758053   91.630768   46.854679
H   38.222336   58.413578   71.659851
H   21.956114   72.990044   30.060177
H   43.321430   67.383293   51.242538
H   59.344769   96.499313   60.529366
H    2.727280   76.200012   60.072906
H   60.255753   54.718819   44.228828
H   96.652016   77.644043   79.831421
H    5.236191    2.702639   74.466888
H   88.747971   19.871864   44.869881
H   30.133093   94.272408   72.823387
H   27.378044   33.671356   93.992760
H   42.278736   46.153408   97.788124
H   49.255787   43.938473   85.711540
H   67.210106   40.950821   72.479637
H    8.560172   69.528709   92.587189
H   84.813232   92.674622   73.397537
H    3.280874   14.393299   65.920937
H   27.209473   77.656303   98.792824
H   37.721817   71.475708   18.287075
H   34.773727   52.045418   12.995453
H   22.704889   78.242386   74.068787
H   19.837387   18.070505   82.020905
H   25.247597   59.497517   50.044136
H    3.647324   41.276756   41.103672
H   97.615234   56.017643   22.117352
H   24.468258   57.910564   47.845680
H   12.677320   42.076725    9.921576
H   46.604393    6.563277   67.060867
H   15.598874   16.879879   56.497894
H   71.064110   39.615807   30.594604
H    9.689132   26.066570   21.958536
H   41.188316   99.897774   15.754850
H   93.779030   25.971018   38.581108
H   42.612091    5.085779    5.117924
H    9.028387   63.416416   20.008564
H   93.139122   11.916508    9.805233
H   97.258957   64.270248   41.763702
H   36.193462   52.349380   90.797699
H   91.353050   23.821831   69.196510
H    6.337966   57.199989   98.675537
H   49.641361   73.802055   51.752571
H   40.026966   24.756165   58.311607
H    6.499732   78.086411   30.832542
H   69.808258   98.388367   11.606919
H   84.550201    7.940252   41.745110
H   50.057716   80.148056   57.692211
H   95.002762   12.571346   30.845781
H   65.862869   26.668303   84.715729
H   20.760818    4.026622   99.690689
H   20.237368   48.899761   91.256187
H   63.491142   77.160484   62.213146
H   19.728004   38.800938   97.409576
