100
TIME:    9.039, STEP:  9039
H    6.051713   93.102394   90.870560
H   50.840805   94.673401   48.043407
H   35.143002   24.205498   17.236271
H   82.993774   60.243828   44.704659
H   14.201971   97.272964   20.621155
H   87.848511   91.415474   73.908966
H   79.235390   71.695442   97.314735
H    9.438721   70.589493   78.263145
H   31.431999   17.229225   31.113958
H   27.872416   46.171650   61.634132
H   59.469269   29.944851   69.066414
H   10.846458   76.769035   49.522881
H   67.362610   14.869898   26.836792
H    7.524638   77.215157   45.112568
H   90.393684   62.624794   16.215866
H   38.085281   21.145103   82.724670
H   97.244301   79.829994   96.244179
H   94.358200   55.001167   86.190018
H   86.051743   57.552280   39.570782
H   48.987667   13.860743   31.749720
H   27.889641   56.357048   11.910650
H   28.958078   56.083389   49.523926
H   65.058525   21.113729   73.733795
H   79.204880   44.960907   35.759243
H    6.298558   69.323364    3.293468
H    4.986544   59.633774   40.271893
H   82.636208   66.738419   79.315536
H   69.856293   78.349670   65.556206
H    7.715118   69.180809   29.892925
H   47.587990   67.124161    1.963608
H   71.798698   32.600636   94.242188
H   36.485188    2.775898   62.478569
H    7.051245    7.146481   12.101460
H   60.021484   45.352234   90.953362
H   56.000023   75.290871   74.993546
H   58.382206   93.405258   91.009499
H   46.756439   73.507088   20.703024
H   90.393745   93.533836   60.297081
H   63.535152   84.473534   68.366180
H   11.821035   65.983330   49.204819
H   17.499865   66.329941   55.299404
H   38.456284   77.049606   41.417645
H   89.076813   17.710564   54.368351
H    2.174844   64.368752   64.518623
H   72.588821   75.268990   29.603445
H   61.447914   35.315899   19.883257
H   12.360160   16.409880   12.234438
H   56.739315   88.468765   27.859241
H   29.249275   83.840248   83.904999
H   15.512611   68.314964   51.526554
H   42.880932   96.985970   48.713821
H   44.424801   24.986538   80.681862
H   96.360405   74.419922   77.902328
H   67.365509   59.728836   30.681519
H   21.096378   50.740105   77.222183
H    4.853823    3.025573   84.917892
H   69.284088   28.730156   15.671706
H   52.993103   23.265326   80.730736
H    3.165249   20.698797   17.561090
H   62.536633   22.555500    6.519920
H   29.888063   58.214329    9.645233
H   78.106133   43.808334   86.369026
H   87.718491   90.477562   13.639099
H   63.733189   91.002274   81.731171
H   91.096283   38.914043   37.331745
H   46.068764   92.918236   80.640587
H   62.352646   60.861439    3.464393
H   55.980225   34.488106   98.319077
H    7.403456    0.301449   93.321869
H   13.602386    2.651137   82.672043
H   34.997463   80.385979   53.726112
H   28.927835   51.470116   18.601227
H   17.632233   71.203392   29.989567
H   31.225574   77.340919   66.086922
H   97.889511   41.624676   86.644775
H   39.345840   86.888176   87.719284
H   87.716629   43.452412   51.052223
H   56.641888   59.688667   13.639243
H   94.967186   26.968327   18.531862
H   56.244133   16.621992   42.203239
H   87.768883   22.794962   20.232124
H   19.575684    3.092839   30.801550
H   89.610695   58.282261   90.771400
H   72.016945   85.645851   37.844128
H   12.207031   83.476486   71.524002
H   43.259953   41.071571   69.478775
H   70.849220   46.143227   54.557610
H    1.400919   81.765236    1.857610
H   43.270512   90.895607   54.263435
H   67.170731   37.387779   47.338287
H   93.935783   61.508503   24.349266
H   47.093365   75.298721    5.758274
H   64.870834   98.728661   18.004328
H   20.849886   61.558582   36.283413
H    0.310296   40.071400   23.792173
H   40.505951   38.791138    0.572609
H   45.128777   86.408546   17.346996
H   20.829950   33.710438   97.420921
H   78.115990   75.834785   87.926247
H    0.659488   46.677837   26.984341
