100
TIME:    9.457, STEP:  9457
H   77.783844   54.769569   90.487869
H   39.296310   17.324306   74.399956
H   42.328014   54.278175   12.329264
H   83.063934   43.022758   21.791780
H   10.456388   30.777237    9.288261
H   81.368286   90.962624   15.303920
H   57.327335   99.918861   30.002895
H   76.584747    6.753239   39.883667
H   21.156761   77.039917    4.802348
H   16.453890   52.173512   78.000526
H   20.587921   46.763901   28.801130
H   94.892479   97.721336   19.769356
H   40.708221   89.569099   85.296844
H   86.827759   75.926765   76.922417
H   95.470711   25.286964   96.114281
H   21.277775   84.585068   48.027405
H   63.631325    7.478651   34.296371
H    3.299276   34.661171   71.698807
H   92.563858   75.087051   61.591427
H   37.727001    4.983919   60.209129
H    3.084514   14.743290    0.564474
H   69.032150   56.638290   13.927338
H   59.477623   17.715757   61.774719
H   40.366238   49.961395    4.714636
H   91.348495   36.173317    6.378955
H    3.014791   47.311142    0.935707
H   46.591606   49.361584   87.607162
H   34.587654   97.860504   79.371330
H   16.804729    7.105265   10.134937
H   63.616341   56.778763   35.192513
H   88.248009   70.082489   61.171356
H   62.878071   91.225693   23.782188
H   36.495842   76.563431   49.758202
H   77.682648    7.045099   73.343224
H   45.597221   43.642372    0.423362
H   94.718658   26.145720   89.695595
H   86.848267   58.199471   53.639912
H   73.115273   85.886406   89.795738
H   45.889935   75.365501   27.858562
H   72.449066   26.850204   82.092117
H   88.932892   80.674454   65.147301
H    3.229340   78.688797   62.755825
H   92.674103   20.218781   84.561607
H   75.488319   71.384743    5.389560
H   36.331337   58.780399   65.375198
H   56.055168   43.288616   21.581446
H   15.628177   39.143787   16.248652
H   56.764828   92.774033   53.722736
H   41.466667   49.220882   67.232452
H   24.285833   74.680382   22.299103
H   43.939640   56.713936   51.450867
H   64.739288   86.199768   53.242958
H    5.029659   76.843628   53.625740
H   57.685524   52.907379   49.127083
H   87.814156   87.371109   80.774826
H    5.374441    2.585877   70.688187
H   95.785400   16.669029   55.426872
H   21.868135   83.789940   69.964378
H   36.132687   38.362129   85.471626
H   34.954220   54.685551   94.631020
H   56.258495   38.776844   77.058296
H   63.270500   39.917648   67.457741
H   16.095982   61.954369   84.975586
H   92.434998   93.279282   70.384399
H    7.686686    5.527522   76.257744
H   20.390957   72.138145    5.356156
H   28.816055   75.313690   23.646446
H   27.106232   58.393501   18.301895
H   28.237444   70.266632   67.107574
H   22.091736   23.645403   81.785477
H   21.722530   51.944347   48.712868
H   94.506523   37.591209   49.239483
H   90.377945   50.527431   19.271046
H   22.025059   50.885838   41.250313
H   18.023989   42.240170   18.337545
H   49.228821   13.677348   59.592041
H   25.680344    7.272229   58.466850
H   76.279091   32.358192   36.725044
H   15.011876   25.740528   23.197496
H   35.744682   93.851173    6.192267
H   95.952080   27.119364   45.215431
H   50.940987    5.806354   95.831505
H   16.049303   65.272743   30.579952
H    0.776086   21.415253   99.667290
H   91.854279   57.326790   31.003504
H   33.638477   56.427025   98.505844
H   98.766487   15.751222   74.489403
H    8.123039   48.318092   97.525497
H   51.944828   67.621651   50.844734
H   30.212751   20.189034   62.279160
H   11.042515   84.080505   33.176659
H   78.021133    6.736505   13.721536
H   91.665543   11.270964   50.328911
H   60.159096   86.834885   66.138817
H   93.083771    2.628387   33.396339
H   75.031006   22.285364   78.982468
H   11.950383   10.396512   93.307037
H   20.023111   54.391666   89.027245
H   58.203331   77.639809   52.915440
H   26.622314   35.952938   86.717087
