100
TIME:    7.916, STEP:  7916
H   81.995598   96.086388   91.898697
H   81.856277   33.820568   77.235062
H   15.839724   43.412308   30.417847
H   82.805283    6.510609    6.259071
H   24.264864    7.259566   51.069550
H    5.260274   92.632103   62.694977
H   38.092594   95.863129    9.494678
H   97.704300   73.435875   81.373161
H   59.037483   25.202106    1.802447
H   58.545753   30.047029   17.662735
H   63.927994   84.760147   77.239838
H   53.711212   20.478527   29.459068
H   38.972755   82.840744   38.436649
H   63.128166   80.676552   59.652294
H   76.753731   62.936691   70.219757
H   83.237640   19.366821   75.943634
H   87.549324    5.553555   94.013062
H   70.345871    9.646429   25.118679
H   68.556274   10.437894   80.407104
H   79.244919   37.708218   55.290688
H   94.530067   68.155273   42.389217
H   21.294970   54.592590   45.157745
H   80.052193   30.242731    5.863479
H   83.547638   31.526583   19.162510
H   46.462227   58.382805   95.001381
H   10.282772   92.739792   45.951881
H   79.473862   13.417550   57.036556
H   64.611565   25.931814   28.432653
H   83.296440   67.293442   82.978905
H    4.528338   94.918137   12.688030
H   27.599306   31.899006   83.090355
H   65.578362   33.800671   66.440300
H   27.948969   89.310493   10.932752
H   12.571353   48.268501   38.262054
H   83.948219   60.317741    6.666911
H   60.761982    5.443707   94.539436
H   39.046444   14.634054   32.215054
H   36.809593   14.083952   81.051247
H   10.933995    8.941652   77.193260
H   17.595074   71.114594   60.850037
H   94.249496   27.799978   28.842009
H   33.096672   72.645752   84.085777
H   79.412323   10.973579   73.253639
H   73.879471   45.512108   54.719257
H   70.000587   19.568394   33.503937
H   75.943138   13.899993   15.320898
H    3.580595   55.337349    1.449805
H   56.670773   76.902222   58.374767
H   96.424812   76.846565   28.700977
H   91.938232   51.220020   30.045296
H   42.958042    5.404512   36.873108
H   89.845810   29.192427   54.400787
H   73.073097   67.908386   43.122597
H   93.377380   78.048813   81.127945
H   10.510979   52.325859   67.677643
H    3.455127    4.206860   23.147476
H   98.092834   61.133614    8.864945
H   36.613693   29.319143    9.656447
H   14.592209   73.248222    3.774483
H   36.644241   36.238468   38.460716
H   59.048077   10.441467   97.203041
H   17.963631   54.261063   37.180351
H   11.477366   67.109406   90.646576
H   86.617485   84.884857   12.218287
H   46.523178   28.606215   32.751999
H   15.055862   48.745476   14.239999
H   52.453186   22.039593   49.247051
H   33.553612   70.261772   44.633179
H   51.435638   80.993065   63.756561
H   90.794594   46.243679   85.053894
H   70.663658   56.797729   67.194710
H   21.404327   88.757225   36.285892
H   90.852737   26.754862   58.785976
H   55.943707   48.415455   32.811096
H   43.792358   39.971088    1.498233
H   12.794457   14.913746   63.281647
H   85.724327   40.650963   31.132250
H    3.888005   33.114803   51.611759
H   41.113571   30.266933    5.998865
H   11.317452   77.797234   38.950661
H   65.783882   11.177011   53.111420
H   35.306915   95.807022   24.751976
H   18.578882   39.501621   83.822952
H   94.757759   89.548218   40.412640
H   66.886795   53.726437   80.385643
H   69.107346   99.820923   91.494156
H   95.846519   27.794792    1.008687
H   83.340080   71.628723   13.501358
H   19.963856   53.421806   63.448128
H   66.458984   83.590347    7.195899
H   47.978046    0.873599    0.633247
H   64.002739   90.838547   84.357994
H   92.884460   65.040031   31.161013
H   12.317072   93.427452   60.562496
H   19.728836   40.662910   97.988556
H   47.750748   83.138123   58.577248
H   34.267113   21.962147   81.932121
H   22.997606   78.142479   19.967600
H   31.612907   70.985405   81.989479
H   30.904497   75.494797   35.166935
