100
TIME:    3.514, STEP:  3514
H   79.684967   99.769714   95.928848
H    3.521339   95.267746   99.662125
H   40.157219   26.714870   82.092262
H   82.066422   87.872734   47.549404
H   63.696472   54.420101   70.425766
H   73.531746   97.401115   26.748945
H   68.800133   98.618797   65.252312
H   43.692825   92.607986   85.550133
H   67.247108   48.436661   78.893745
H   78.812767   66.839195   45.295425
H   73.391312    7.635997    1.263590
H   21.720490   99.829544   42.798302
H   19.737202   49.105560   75.865501
H   81.088432   94.244728   24.656872
H   23.244606   56.142563   81.858070
H   60.234253    4.381735   41.348976
H   41.532234   14.395221   93.281631
H   76.233360   23.815010   77.719421
H    0.000511   25.769663   48.492451
H   97.847588   31.192659   55.582085
H   55.750977    6.386925   61.864220
H   99.270950   48.748871   20.028687
H   38.827065   66.043083   31.811695
H   92.552803   78.826599   46.093807
H    3.903958    7.480843   62.491493
H   30.545149   22.904516   59.802872
H   59.063572   96.403519   69.695839
H   36.040882   20.461334   82.926140
H   87.579025   67.909561   91.064186
H   35.734879    3.868068   62.741455
H   54.354641   37.162785   31.362450
H   87.633400   55.421249   73.955482
H   17.878561   11.381546   14.365827
H   26.576630   51.685585   23.711430
H   93.421921   93.288536   38.706001
H   78.086205   60.529354    8.557179
H   16.837669   75.845200   85.354851
H   18.752579   94.640419   70.413734
H   96.744324    4.854364    3.779865
H   32.214230   83.214523   14.508070
H   95.095261   76.756516   25.134016
H   15.802879   69.570068   67.891953
H   41.508976   84.572357   55.292721
H   54.966187   71.664948   24.314566
H   51.841595   93.247681   56.813412
H   32.752209   29.940968   97.436562
H   69.187790   15.940976   59.195641
H   56.427082   31.563181   86.004356
H   67.745102   41.419678    4.298148
H   99.576683   84.224586   37.890331
H   43.276524   30.389858   90.467880
H   75.906723   37.666199   43.374943
H   81.767830   42.384094   98.781197
H   95.319115   49.874138   86.880157
H   61.003433   66.542908   30.234911
H   97.963028    8.838095   73.001953
H   19.024714   88.151543   90.198006
H   64.396477   45.033905   23.043182
H   67.417458   87.243393   41.711613
H   27.131264   97.884857   63.664070
H   81.366280   15.155507   40.416386
H   74.195885   95.234268   36.357368
H   12.625329   67.494072   92.504936
H   84.339836   60.909790   31.735477
H   71.800652   80.187019   22.812815
H   85.474678   67.581490   53.958908
H    5.633363   69.848572   36.718914
H   37.629860   18.506685   34.192120
H   32.039497   97.292709   39.841000
H    1.580541   24.886206   94.333649
H   10.446451   56.307381   19.995529
H   84.221603   34.902435   13.899947
H   77.871933   44.488659   71.650871
H   52.856991   27.006138   94.364647
H   31.596048   33.648113   67.782997
H    8.728791   32.786774   59.480770
H   86.003517   21.976128   53.196232
H   97.074432   20.948282    8.503984
H   30.021894   43.197002   56.890213
H   27.192268   17.573303   18.186844
H   79.642502   65.635605   90.012711
H    4.983144   67.176651   92.938599
H   40.129696   65.912292   64.591034
H   91.907852   12.859392   42.466888
H   81.226395   29.081676    7.109543
H   70.419373   38.129341   85.805939
H    1.846838   47.856499   91.104309
H   12.520655   23.954834   59.198296
H   28.609837   98.518822   99.450813
H   55.654430   64.702225   49.833374
H   67.829956   63.175831    7.671060
H   38.294197   59.777458    0.483541
H   10.708636   32.954590   90.747459
H   86.869148   26.382328   63.748161
H   95.834236   34.967068   96.835747
H   84.163559   56.967049   85.946129
H   83.677765   69.341881   35.096519
H   19.765371   46.157288   99.809303
H   41.314476   51.997768   50.703217
H   57.477741   88.458809   59.225800
