100
TIME:    2.258, STEP:  2258
H   64.622955   14.951118   97.078751
H   38.459908   27.169523   20.433859
H   18.567801   36.353104   96.830177
H   81.855606   39.621300   16.394112
H   74.946350   53.746174    4.481722
H   93.003426   98.761833    2.362638
H   34.628887   13.807892   67.031395
H   42.411949   83.947571    0.871218
H   98.121986   69.195877   57.955097
H   13.135515   48.804893   96.109276
H   90.221375   57.098011   22.247824
H   69.660706   36.872391   32.201576
H   99.631676   25.095421    0.702590
H   43.278374   98.116066   29.074879
H    7.965281   68.333588   42.232613
H   10.734997   14.236297   45.608170
H   42.527618   31.322151   78.938660
H   49.397095   84.893990   21.264732
H   80.433006   73.080460   82.322479
H   31.684067   57.860958   70.067787
H   30.283707   31.426395   95.958221
H   78.857010   47.081512   26.988693
H   55.596474   76.258049   67.746170
H    9.248894   63.762882   39.375610
H   48.824455    7.094597   53.221771
H   36.305454   60.325420   77.529182
H   67.369911   48.615658   44.773899
H   42.018303   61.835522   41.409451
H   60.268845   53.955269   50.435020
H   87.575569   34.954697   62.893063
H    4.925643   24.532667   30.736485
H    8.328699   90.126762   90.229713
H   29.407738    3.276698    1.215425
H   73.506950   66.790543   76.625351
H   24.644569   88.232544   62.223389
H   68.878799   61.863125   12.877694
H   96.370880   21.843523   86.386963
H   70.662315   17.626263   81.782021
H   49.763229   32.217285   25.495016
H   50.514622    0.796326   15.688524
H   80.931511   33.661091   95.542038
H   28.685028   13.197171    8.884388
H   30.690313   77.040497   64.569847
H   35.170082   50.615639    1.509632
H   60.789829   42.800930   49.334450
H   48.956249    5.984669   92.338661
H   59.370777   47.635773   47.131248
H   56.360004   18.631571    8.290123
H   31.033491   45.441311   54.403053
H   73.243919   65.117043   25.737293
H   43.372349   51.648369   77.224838
H   14.867422   54.214191   25.828251
H   55.719498   35.101379   71.729668
H   24.403606   70.368172   31.454912
H   61.001968   56.454113   19.566114
H   96.391495   10.158899   15.759155
H   39.398754   24.393623   70.742012
H   57.921478   63.647385   55.395096
H   68.359535   34.175396   38.135338
H   10.014830    1.344336   99.387703
H    2.136621   73.563301   38.344059
H   18.771748    6.926348   93.186371
H   27.391140   53.174812   78.650558
H   98.091736   54.077454   65.839149
H   21.945267   80.501709    5.843957
H   62.632729   30.021065   79.695930
H    6.404650   26.428267   76.078323
H   24.390434   46.674988   74.148056
H   69.442070   87.540855   18.614052
H   76.129700   61.715546   96.978424
H   50.331154   41.765663   35.065014
H   87.784729   76.586395   21.941488
H   59.765930    6.617687    3.849219
H   80.498650    6.488206   69.008904
H   71.037498   31.856565   72.569565
H   79.039787   52.290100   43.994541
H   71.967438   30.838179   30.983732
H   38.065273    3.075056   39.141293
H   69.790436   46.886272   42.870987
H   88.788704   85.978821   26.392372
H   55.069439   52.641705   14.944309
H   10.742962   58.974014   97.964455
H   60.666668   44.945740   44.963169
H    5.499436    5.381564   57.186493
H   42.384033    7.644169   28.864563
H   99.320251   91.994453   98.585487
H   17.961447   39.177933   31.213560
H   92.304504   24.513428   72.265327
H    2.541560   68.450371    9.726423
H   66.701859   16.374207    4.936891
H   16.429321   95.357529   81.146561
H   45.358295   65.326469   76.546471
H   30.161095   95.291000   93.599930
H   65.473000   50.197811   79.063362
H   17.551685   47.472282   67.973198
H   80.423111    6.565838   50.820374
H   83.373123   97.262672    7.329710
H   15.155742   35.463196   19.906799
H    1.147682   46.583645   55.907616
H   79.470749   20.704479   80.207916
