100
TIME:    5.883, STEP:  5883
H   19.479139   82.521141   93.759964
H   38.000282   23.654562   49.048092
H   80.885513   97.151077   54.288082
H   82.464050   90.269989   17.695240
H   42.477554   44.305817    6.193584
H   36.791920   94.834602   61.360386
H   44.641758   58.587177   50.511341
H   57.494095   97.556839   68.037209
H    9.012566   20.667053   29.772635
H   14.075506    0.854600   38.060978
H   53.032700    2.957975   73.068520
H   31.303314   18.574757   74.170815
H   68.660477    5.833363   40.457207
H   63.789818   86.942818    4.938099
H   52.057365   44.533981   67.983521
H   64.981186   97.180214   44.700897
H   51.031288   71.084496    8.941046
H   26.872038    8.571835   95.590858
H   36.896992   25.152056   73.300339
H   34.018585   80.880165   16.874567
H   15.171150   70.546753   97.569710
H   26.389282   51.893753   18.286453
H    7.196302   46.776161   64.030884
H   72.443153    7.206027   70.151489
H   19.174496   19.608154   79.987160
H   19.728289   52.744240   37.206810
H   54.781914   97.926773   16.693594
H   36.151455   31.038246   61.236069
H   39.091347   82.843933   79.079895
H   26.573086   45.235619   51.069992
H   47.589249   49.595104   43.934700
H   37.213352   89.971573   54.645271
H   84.747917   38.053612   27.784056
H   26.672821   34.580803   23.909342
H   34.536713   14.209734   82.961777
H   84.036942   46.210777    0.930246
H   44.055092   89.086548   72.022743
H   20.838154   51.293583   37.588238
H   96.747772   53.235771   74.205986
H    9.080954   61.437420    0.896185
H   33.189728   58.040810   80.946632
H    4.426736   64.673325   80.296410
H   61.914562   98.778549   26.409672
H    3.695224   11.388876   55.943825
H   46.348743   99.780411   59.534649
H    2.186240   75.126053    7.061526
H   87.695602   44.775955   81.936592
H   56.553600   55.962967   32.584599
H   36.995399   45.219261    9.797978
H   49.262043   20.274374   72.198532
H   43.097637    1.677440   15.443408
H   91.035820   17.840675   87.853645
H   30.903225   56.120361   61.194935
H   40.454102   11.214335   91.417625
H   72.381645   74.163544   50.386669
H    0.923021    6.345378   92.355591
H   69.207314   19.795540   15.509840
H   87.995514   21.310961   62.022934
H   54.255600   87.339912   59.843452
H   70.800476   79.975311   96.284081
H   30.805244    4.985971   55.710003
H   90.118752   73.183945   29.166870
H   73.458199    5.837368   30.055481
H   47.015129   73.810318   67.419144
H   65.831192   90.978653   43.427494
H   39.943871   49.811668   94.032204
H   15.564342   51.751545   51.093826
H   73.986656   53.992588   47.444019
H   50.111164   27.071465   91.260712
H   49.572777   44.040359   89.345215
H   35.221687   95.121338   91.577309
H   88.886917   56.279678   87.347702
H   23.408936   27.309135   10.906311
H    0.704156   77.083275   53.605400
H   45.813663   37.027958   47.369644
H   64.739403   84.618217    0.078878
H    1.092789   16.646357   95.091850
H    8.374370   66.046791   39.336243
H   43.623455   36.238499   83.319313
H   11.017342   88.544441   14.095361
H   25.993273   90.143997   31.601606
H   82.747284   82.622910   94.827660
H   89.987343    5.503532   90.210510
H   54.889870   15.579988   26.096066
H   65.875893   80.900291   77.461563
H   15.892132   25.145733   50.316635
H   60.066994   75.610756    4.067600
H   50.643822   34.309788   34.580208
H   77.771835   66.616188   80.075447
H   46.202747   67.235153   34.520683
H   64.779259   91.096848   57.699993
H   13.581324   37.936768   45.619980
H   62.565109    4.037267   73.945999
H   15.837070   70.087959   23.480577
H   54.878471   22.766102   51.270756
H   79.833252   63.418304   63.584320
H   95.637810    5.294068   98.852310
H   26.921778   77.548523   60.778168
H   28.460358   62.209599   52.274956
H    4.627796   27.667915   31.012554
