100
TIME:    8.435, STEP:  8435
H   46.897209   48.491325   91.423538
H   67.522324   61.946003    9.958346
H   24.760828   80.751862   24.325916
H   82.892395   85.127861   77.812325
H   19.614248   48.859699   36.996933
H   97.212280   92.069832   14.091968
H   10.892367   30.909540   50.081150
H   56.911926   18.337046   33.720146
H   46.279472   75.301773   69.135162
H   44.370186   37.499104   37.985085
H   15.651871    5.643202   27.247950
H   33.901054   46.493465   92.516960
H    5.877681   51.426422   86.859955
H   37.430000   79.076851   99.146339
H   83.057503   16.577042   45.261063
H   62.370255   73.972984   32.862579
H   45.814552   39.880077   41.259682
H   81.440826   84.391975    7.128447
H   76.641891   32.212040    7.751471
H   65.259415   26.687540   90.626656
H   63.731865   16.486042   28.304201
H   71.052010   55.281570    0.960133
H   73.122795   26.023718   91.014374
H   35.324593   37.735321   80.617920
H   27.899799   17.222183   98.834328
H    7.835535   77.439682   97.110794
H   34.719238   91.843643   67.334335
H   20.821173   50.156986   45.589432
H   94.581459   14.381350   58.444878
H   24.428158   82.073013   53.946716
H   48.026745   78.438072   42.028725
H   98.348473   19.462757   18.393837
H   64.508194   51.337395   57.688370
H   34.501526    0.705373   16.398249
H   71.031822   21.022118   38.244892
H    5.878042   46.096199   92.908058
H   88.825249   95.626228   73.110374
H   15.358631    4.585728   17.676262
H   89.027550   97.634422   26.897915
H   68.709900   22.526625    1.682392
H   58.778900   45.606552   41.069424
H   89.357956   74.681015   10.582883
H   83.878815   14.086859   10.742813
H   40.740414   54.226372    5.465083
H   24.982349   99.093147   77.916801
H   69.243401   23.797153   17.429415
H    7.637909   83.561775    6.434079
H   56.702450   82.247757   90.487572
H   11.595436   33.863319    7.997534
H    2.834427   59.119534   93.757042
H   42.922405   55.298820   42.345352
H   15.069565   81.033829   20.331230
H   83.835442   70.917725   12.980448
H   81.355865   69.583069    4.030257
H   69.187599   97.807480   72.088699
H    4.101542    3.660922    5.479492
H   30.994301   46.158195   58.226158
H   97.968689   80.305412   96.287865
H   55.526287   95.176796   63.932228
H    2.396785   76.130798   23.699120
H   91.786514   86.304688   56.736073
H   99.543266   49.430283   13.697081
H   46.713192   31.694227   55.057190
H   22.255733   87.712051   98.126984
H   67.124664   87.154602   81.083557
H   83.173622   22.944359   44.927387
H   10.812437   39.981892   74.303757
H   97.702454   99.943352   69.444382
H   77.302032   43.701027   31.204231
H    1.335229   72.311356   83.953110
H   54.181210   21.483067   60.970131
H   78.665146   71.524803   74.327377
H   57.013519    1.082563   45.477573
H   44.520100   15.569118    1.975129
H   68.793625   40.735302   40.848942
H   25.065172   48.177795   28.361235
H   32.861160   95.729126   40.338264
H   28.269178   99.180550   80.277954
H   66.000328   28.742466   11.790852
H   85.865349   49.525291   94.238518
H   75.944359   16.546305   84.131363
H   74.251175   99.172729   81.331596
H   51.407578   48.181187   33.249958
H   30.464241   33.960793   93.010765
H   41.616272   21.261219   30.074333
H   57.162754   18.884670   27.535355
H   30.509432   90.058937   25.756645
H   91.687035   30.096710    8.120186
H   30.736099   24.524752   59.203377
H   20.571238   62.239555   25.748419
H   69.217644   28.896595   11.593894
H    2.403482   29.871643   94.249214
H   26.153126   80.609398   71.296082
H   62.474808   24.914539   95.557930
H   10.754276   94.173172    9.914211
H   90.617981   62.642944   31.770378
H   93.072014   51.746010   52.084236
H   21.995813    3.824466    9.547766
H    6.889160   73.226570   38.518055
H   63.140057   62.175060   85.169830
