200
TIME:    0.203, STEP:   203
H    8.334206   62.597790   14.706900
H   27.634502   32.338009   88.395126
H   18.913206   67.518669   43.525749
H   16.595289   76.541298   45.467236
H   15.602982   82.791489   54.190472
H   90.822266   53.819233   66.644707
H    2.823177   55.330383   48.935200
H    2.059478   87.288635   26.385674
H   85.925858   88.060921   48.622032
H   12.163677   75.417168   97.531883
H   10.904010   93.803780   91.792435
H   30.624802   41.035259   10.979284
H   10.266055   85.779930   62.808128
H    6.152596   53.050831   40.482876
H   21.408257   71.659760   43.069630
H   30.378868   27.490860   55.121174
H   82.466827    5.985626   17.228456
H   37.440800   81.388344   44.179085
H   63.794369   31.041441   41.939159
H   89.938538   80.212791   38.905025
H   57.641037   74.911247   27.535610
H   90.852745   47.400108   72.000526
H   96.113190   62.810478   50.024002
H    7.824766   87.722198   91.701866
H    1.638250   11.215854   46.730610
H   18.691721   60.694351    8.178572
H   98.179314   58.054340   47.594208
H   93.661163   68.603104    0.633915
H    9.510224   57.654366   38.555019
H   94.721413   19.773163   99.905792
H   13.409799   49.903446   16.149576
H   32.598885   62.639145   92.692184
H   28.017303    8.189382   72.727211
H   97.651115   63.537552   37.643578
H   49.764027   91.329880   34.500530
H   34.269871   50.765568   79.052200
H   85.202499   75.227592   85.677162
H   34.745117   43.798218   16.831034
H   54.439629   47.725533   43.609188
H   90.437584   39.840641   65.141693
H   80.493301    6.952197    0.296170
H   11.497667   43.882755   40.928249
H   77.368057   88.631897   48.954388
H   37.363693   61.437054   17.425041
H   27.512852   75.166283   43.028694
H   41.580471   14.801415   42.285477
H   79.276901   28.024891   95.367714
H   91.016602   65.551170   48.977798
H   85.649452   30.156261   61.139656
H   63.441467   17.634531    7.277800
H   79.088409   70.964432   29.335075
H   22.552519   35.061138   62.746014
H   51.179020   95.481094    7.444154
H   22.957266   81.402893   81.155243
H   78.765030   77.207802   91.969971
H    5.779968   73.261566   77.436646
H    5.536077   16.605446   50.051487
H   67.004440   57.719265    5.971244
H   28.961899   73.762711    6.231598
H   43.959045   96.196938   67.678215
H   50.539349   16.098286   43.317524
H   89.271904   16.337233   48.782623
H   70.427971   24.439987   86.133194
H   23.229563   65.099548    2.841407
H   70.753593   75.527481   16.416611
H   40.191082   15.123668   32.198227
H   87.557228   23.942442   85.070686
H   97.548622   91.365807   86.539017
H   15.206412    5.353246   62.448120
H   45.449951   40.985100   50.984570
H   58.481396   75.952187   72.291641
H   33.180298   24.794384   45.023827
H   76.319473   25.023434    0.734676
H    6.659960    9.777963   59.495560
H   78.694504    0.272637   69.352455
H   52.378540   20.382889   63.119251
H   95.583969   28.572775   72.668938
H   27.925676    5.296188   49.232750
H   11.249260   28.044937   35.757938
H   68.833611   90.873299   96.016327
H   41.797733   30.727386    1.682830
H   25.009565   69.255600   89.001060
H   11.144068   13.260442   91.362289
H   25.880634   60.649712   92.645599
H   40.225796   98.932602   58.830753
H   23.624796   87.068893   28.553043
H   34.196918    2.707009    1.686501
H   75.639183   19.921413   10.046630
H   64.556236   71.958641   77.031677
H   23.629452   84.388718   55.272564
H   42.793850   34.573387   80.919060
H   84.313156   88.210831   97.560501
H   45.502029   17.279390   96.783607
H   61.687012   95.762939   68.088715
H   24.187353   57.426697   66.398773
H   70.804329   26.882053   30.801350
H   78.803688   15.558924   96.735710
H    7.911846   27.863760   48.243252
H   37.856300   70.148674   52.750126
H   66.561096   97.326111   27.241373
H    8.215466   79.403381   67.197517
H   89.196434   76.096794   66.068695
H   22.412420   38.522110   29.985762
H   20.097984   67.871170   88.693062
H   25.387787   27.958973   23.887955
H   85.958313   28.584393   45.623028
H   63.905582   29.637358   56.431427
H   64.969124   32.853764   20.172310
H   71.856262   40.556698   97.343452
H    3.178167   28.576269    5.356177
H   46.707737   96.388306    0.769819
H   84.508278   62.414738   90.089706
H   57.736668   79.845299   94.740173
H   63.349510   20.195021   75.908112
H   65.084984   80.427841   28.069983
H   15.548485    6.879744   77.265221
H   34.096188    7.921710   83.748764
H   40.958836   25.175301   34.718102
H   17.457184   56.324474   85.368317
H   69.806198   45.936398   47.962513
H   40.168404   21.513561   88.732254
H   19.885574   28.356533   47.099804
H   31.344366   23.383053   22.931545
H    4.622444   68.650375   19.485464
H   78.023506    9.868190   94.036850
H   46.366802   61.340004   26.245785
H   96.306328   49.017166   72.483704
H   76.237991   87.279778   34.690083
H   92.012390   53.822983   85.733459
H   65.951820   24.324717   65.871262
H   47.115372   86.506805    1.997377
H   83.120193   85.684402    8.454434
H   92.558571   80.794586   97.099922
H    2.734880   12.054294   49.251621
H    2.598253    2.039129   58.117104
H   63.343544    1.674336   84.226700
H   68.831459   86.470238   53.496735
H   90.902748   65.376045   83.782990
H   45.346115   43.816200   71.558838
H   43.427902   10.864496   96.485580
H   48.785892   64.156761   13.714773
H   58.941620   39.886616   45.384361
H   56.194920   56.079971    0.632224
H   59.408501   27.867079   77.511299
H   38.562763   70.994179   47.858662
H   44.584446   61.338184   31.618229
H   43.856163   96.939827   47.546822
H   43.662750   74.795975   69.037254
H   64.196136   66.336960   98.312279
H    8.282303   88.270653   91.381790
H   77.524391   60.681576   51.623520
H   32.229847    8.133472   49.311825
H   74.456902   33.222080    4.763529
H    8.931800    0.293457   76.866852
H   12.145348   52.901901   60.083767
H   62.403717   43.437160   52.922634
H   58.923962   59.774055   80.317673
H   45.520023   37.253548    8.857298
H   14.075212    1.873747    3.977028
H   64.094467   58.453491   76.821167
H   53.592503   85.912567   84.399658
H   45.341305   23.248045   35.864513
H   63.626690   36.183079   37.247437
H    9.916558   19.092712   72.781860
H   59.308456   20.832888    9.460994
H   11.276219   65.616386   62.504082
H   75.536957   98.165413   51.829460
H   23.599892   29.249142   46.482716
H   93.570206   28.290535   36.944302
H   24.784451   10.738932   90.820007
H   80.071838    5.193803   35.979179
H   47.441139   66.821289   57.344494
H   36.958050   79.044083   91.465103
H   71.679375   75.431229   73.386948
H   73.157562   95.314880    0.971087
H   99.765007   47.460991   23.251247
H   35.797844   51.765324   85.360184
H    1.402081    9.165573   64.407089
H   76.547798   22.239695   69.567589
H   88.060593   54.058205   85.863052
H   82.093330   83.863510   42.579571
H   18.481369   30.060879   68.265419
H   67.338470   90.204147    5.337723
H   50.675270   25.151814   75.829094
H   85.044487   89.939186   78.549271
H   98.485832   35.911560   83.769020
H   30.063736    5.158356   98.445389
H   92.198616   65.657295   24.231905
H    7.689871   61.008408   66.120544
H   48.940739   58.474583   65.235550
H   46.052727   32.248486   79.565681
H   47.956234   83.923691   25.095667
H    3.278616   16.643782   56.958645
H   35.750004   62.054295   32.567619
H   86.164337   55.907990   21.937315
H   75.237808   10.292655   30.073290
H    9.215337   84.550514    2.217926
H   29.984795   98.141541   48.010189
H   12.406713   11.508366   79.671837
H    8.393659   36.246239   98.262840
