100
TIME:    2.372, STEP:  2372
H   56.913483    4.496891   96.974380
H   35.288795   33.350502   27.624960
H   20.527349   44.554855   95.492500
H   81.874741   34.924644   10.145182
H   73.925262   62.883778    1.390844
H   91.236092   98.638329   13.652658
H   28.654324   21.505997   75.946342
H   33.451775   93.810547   90.404579
H   95.319649   58.235275   50.778782
H   10.020502   50.441765    0.572935
H   79.617371   61.685078   11.266783
H   65.310211   42.586655   24.087225
H   92.379692   18.198296   89.371513
H   37.633690   97.764687   37.750645
H    9.352097   58.150543   36.752312
H    6.151018    4.265254   36.145279
H   33.362183   38.861153   89.318268
H   51.833267   79.350197   17.312149
H   82.209038   77.862350   88.328979
H   28.612976   55.440441   77.829445
H   23.518784   20.077015   92.863647
H   89.786301   47.232849   17.280533
H   54.074409   75.330894   64.484604
H   98.656982   65.130127   30.908585
H   44.747063   98.053345   54.062820
H   35.782734   56.929043   66.843422
H   57.539413   43.876385   47.036121
H   32.399727   67.156654   45.178082
H   62.747635   64.298347   45.046043
H   91.946938   32.133224   71.955864
H    9.410588   34.756039   21.715862
H   15.526541   86.976524   79.676155
H   37.438007   94.935921   11.485448
H   78.323631   56.343094   71.822586
H   21.810486   79.615051   69.165520
H   78.790482   70.818291   12.485871
H    7.305027   17.668283   95.369751
H   65.950005   15.539730   89.827217
H   44.950897   29.733675   14.447874
H   39.777546   90.124428   24.657831
H   73.140282   37.572361   98.227829
H   18.439362   18.313797   14.240097
H   31.672262   77.724121   72.804649
H   27.890512   52.526482   12.655925
H   50.901630   38.303448   59.089577
H   47.485500    8.159046   92.801369
H   60.262272   53.835358   48.226265
H   56.366093   19.805300   15.343803
H   34.365509   36.000164   49.855125
H   75.633995   66.851326   17.764286
H   43.363651   40.642540   78.426834
H   20.407301   43.635410   18.344044
H   58.084351   35.762390   65.109123
H   21.763912   68.508644   36.485504
H   51.926117   66.448212   20.533278
H   96.534134   10.039091   11.878326
H   46.625515   21.104225   81.584328
H   49.432709   52.881607   52.458817
H   77.351021   38.992077   29.383165
H    2.492205   10.107077   96.145271
H    9.327940   68.261299   29.456074
H   14.726101    5.865034   88.028748
H   35.123837   45.400978   70.829758
H    5.919883   54.697586   62.744221
H   26.470146   71.397156   16.460573
H   55.629494   24.353767   86.436501
H   97.258064   30.369543   81.582108
H   16.515709   53.194641   79.597916
H   75.123283   79.349541   11.463967
H   78.439758   67.449287   96.738373
H   46.711250   34.009224   33.696896
H   78.384460   72.802979   30.288054
H   52.333038    0.979092    0.926041
H   77.990288   99.274002   62.233543
H   76.534325   32.018826   81.211411
H   81.734276   59.596878   36.324207
H   82.317474   20.957373   33.000034
H   43.421200   95.621086   45.437420
H   75.257690   46.551418   44.143433
H   83.197945   79.770538   16.571144
H   57.300350   53.821087   21.757538
H   19.296829   59.718521   88.431984
H   67.879044   46.848755   55.821140
H   13.341798   15.136690   46.773834
H   36.833282    0.513272   17.813507
H   96.697083   96.181435    6.502076
H   25.575247   30.889206   36.649506
H   94.139679   15.386276   71.078987
H    4.907609   62.102928    8.793833
H   56.622547   11.683640    9.011973
H   21.094666    1.513506   83.554031
H   53.794010   73.898735   78.719109
H   37.475590   98.707382    2.419265
H   76.491005   57.113201   86.750221
H   15.580395   37.260536   70.592888
H   89.839035    2.064224   44.932159
H   74.324234    3.804843    0.773391
H   15.574309   36.433838   18.082497
H   95.717003   47.075054   46.358620
H   86.550522   17.776463   69.228180
