100
TIME:    5.698, STEP:  5698
H   31.989420   99.486626   93.929337
H   43.109688   13.629201   37.382557
H   77.704132   83.841217   56.460285
H   82.432999   97.891754   27.835716
H   44.134583   29.477251   11.209482
H   39.661373   95.035027   43.038509
H   54.336926   46.094540   36.044102
H   72.034729   81.551132   85.022453
H   13.560219   38.453995   41.418274
H   19.129160   98.198204   30.817362
H   70.240952   95.514145   90.889336
H   38.364738    9.301865   87.339531
H   80.465744   17.021126   58.839775
H   72.950050   87.513039   90.859947
H   49.807533   61.059097   76.875580
H   72.419464   13.361224   60.057343
H   65.907845   58.847919   92.099762
H   22.915777   17.573280    2.004229
H   34.016247   17.390558   63.553013
H   39.002373   84.809608    4.278947
H   26.149315   88.963196    2.591225
H    8.653152   51.648163   34.040924
H    9.666614   48.280754   69.323776
H   89.631645    4.992892   83.890427
H   25.790611   34.280052   78.620888
H   20.571623   58.213562   54.602783
H   70.734802    5.616971   13.022730
H   51.760548   22.403069   55.120308
H   35.068748   66.059113   87.825165
H   19.479904   49.814323   36.362808
H   40.307640   33.006474   58.571312
H   25.532291   95.083801   71.771660
H   71.717522   51.589302   11.117795
H   18.855572   51.534996   31.702597
H   39.135178   28.194921   71.695679
H   67.955017   31.720940    1.512064
H   26.311680   95.861450   57.445415
H   28.483921   54.679623   24.533848
H    4.556527   57.266838   92.134071
H   26.505861   78.755974   86.341393
H   45.833389   51.693573   76.588112
H   20.017742   63.947945   70.851067
H   60.321049   97.669159   13.046960
H   15.507839    8.283712   37.856247
H   62.395382    7.079303   43.703960
H    4.573578   71.597458    6.309935
H   86.250290   34.715225   80.161003
H   56.543720   54.057526   21.137838
H   31.588181   60.540421   17.177979
H   45.382000   17.458555   85.138596
H   43.110340   19.538431   13.493154
H   82.044960   35.007412   99.997658
H   27.065525   55.047668   71.939171
H   44.737816   14.233048   83.253868
H   87.111412   57.951237   48.812916
H    0.692582    6.539980   98.653427
H   57.479050   25.133598   97.914558
H    1.771097   38.782173   66.787949
H   39.665565   79.523369   74.045341
H   83.009415   65.756485    1.545910
H   19.134769   13.589039   70.134087
H   96.684761   74.905899   37.538109
H   60.898876   18.461691   42.741486
H   34.310776   72.802551   72.441040
H   58.487831    5.753932   26.199244
H   51.308769   59.008598   83.093559
H   30.407730   45.356319   42.162247
H   86.765816   43.412449   38.599949
H   40.890240   40.364388    2.863008
H   45.825409   34.734749   89.734772
H   41.096092    7.708752   93.796089
H    4.141473   62.419434   73.803543
H   35.471588   36.459488   15.650154
H    4.776226   88.792564   64.597679
H   36.894787   36.764019   33.345596
H   60.365593   72.762138   12.526793
H   84.296623   32.681026   91.820137
H   99.682724   78.142815   29.118845
H   34.752567   36.781902   81.255791
H   20.089554   98.622108   30.033276
H   22.372934   88.230087   20.545107
H   68.861557   81.423187   10.302989
H   78.286522    2.409882   72.592941
H   42.162933   99.748947   42.992390
H   74.883690   92.471260   95.395294
H   20.150440   18.350365   37.469727
H   47.711266   89.061760   95.246063
H   47.668510   49.114361   36.498352
H   73.932724   76.916862   81.588509
H   62.559902   74.845627   27.907660
H   57.208305   81.106689   53.793133
H   99.893196   24.023218   42.095619
H   50.706207   98.486519   59.639668
H   97.957832   58.864208   11.006431
H   58.076790   39.337795   47.019505
H   64.553024   70.723907   73.139755
H   10.322157   94.677406    9.492047
H   27.278872   68.393936   64.491844
H   37.273376   61.412136   67.770790
H   93.136322   32.415226   48.834782
