100
TIME:    9.804, STEP:  9804
H   54.317291   22.948200   90.170181
H   29.713039   36.128788   96.278069
H   48.292606   79.243156    8.255577
H   83.122177   28.726496    2.771156
H    7.347017   58.590820   99.880074
H   75.988770   90.586693   49.669174
H   39.142345   23.350954   57.138744
H   49.311234   36.772297    8.022375
H   12.626839   43.677383   82.960960
H    6.974874   57.155918   91.586983
H   88.310760   60.726288   95.376122
H   81.650185   15.114151   95.070076
H   18.581253   68.564629   50.812828
H   69.646133   74.857216    3.327897
H   99.685371   94.291229   79.425072
H    7.324670   54.235275   19.223106
H   35.727730   30.429199   65.885147
H   10.719954   17.776054   59.669975
H   97.969849   89.642456   79.881271
H   28.379032   97.614471   83.834526
H   82.492966   80.199165   91.145050
H    2.299377   57.098938   84.377136
H   54.844673   14.894693   51.846970
H    8.124535   54.112518   78.944534
H   78.937485    8.653595    8.940315
H    1.377871   37.081589   68.282631
H   16.668724   34.935902   94.490402
H    5.309093   14.057286   90.839867
H   24.349819   38.587284   93.732315
H   76.922173   48.190598   62.778419
H    1.903570    1.199962   33.717819
H   84.787949   81.636810   91.658714
H   60.939285   51.174866   81.018700
H   92.343948   75.244621   58.724281
H   36.961403   17.369576   21.535978
H   24.882044   53.326290   88.604866
H   20.130501   45.491951   80.982254
H   58.772625   79.537941   14.282752
H   31.241871   67.804527   94.232368
H   39.766232   94.364746    9.392560
H   65.217484   92.582458   73.322472
H   73.985954   80.053055   80.464592
H   95.660370   22.300961    9.626429
H   53.333599   77.209023   39.315990
H    6.214311   45.062412   95.058533
H   51.578415   49.907116   22.991186
H   18.341671   58.017101   19.580404
H   56.786007   96.348022   75.193146
H   51.608856   20.483356   53.389816
H   31.568830   79.964592   98.036781
H   45.872242   23.359344   52.102127
H   81.603226   54.001266   30.464640
H   12.227278   78.855652   33.471085
H   49.650665   47.244591   64.439644
H   60.185890   17.780260   83.724030
H    5.806629    2.220867   58.875488
H   17.783607    6.655990   88.429359
H   96.030228   51.020424   61.026756
H   63.501507   53.026077   58.832973
H   12.056744   81.356384   84.761513
H   78.148132   22.640173   50.005795
H   50.954796   36.687820   51.756592
H   39.671856   38.304298   61.193985
H   16.262829   95.169525   60.964096
H   21.459785   77.814064    8.572160
H   99.074982   54.887688   25.873850
H    0.974692   87.311707   40.399853
H    3.136317   78.238411   34.890503
H   45.532906   45.333420   45.343678
H   29.139114   41.073238   81.049500
H   10.702410   28.332188   44.551155
H   65.930489   26.069725   74.674164
H   67.753265   33.364338   10.373135
H   14.387310   28.925468   20.633093
H   34.738564   42.751118   44.647404
H   57.433113   35.917065   36.244621
H   57.195259   77.239548   64.621788
H   92.581779    9.669975   55.889572
H   31.650824   24.721279   27.070642
H   18.728230   74.948738   76.297920
H    2.745059   30.709238   65.955162
H   76.979485    8.058969   66.800117
H   37.997932   71.075844   63.627445
H   24.649010   51.108963   67.972618
H   74.958572   35.620758   97.366547
H   25.651272   69.173180   22.602894
H   21.941912   90.521172   91.035652
H   13.703096   20.551615   93.930328
H   59.145756   48.300926   48.006721
H   99.533051    5.911606   74.684509
H   25.243399    2.818488   40.504662
H    3.695619   32.833511   20.332094
H   13.908696   21.683187   77.162956
H   91.737282    7.739144   92.543983
H   87.084763   71.547707   41.370308
H    3.691798    8.583387   61.059570
H   84.407127   30.309116   73.350937
H   19.353319   71.561218   82.059288
H   41.672966   79.138237   23.849636
H   48.174797   27.048996   53.290165
