100
TIME:    7.656, STEP:  7656
H   99.578606   19.929192   92.136734
H   89.037064   19.730755   60.841854
H   11.370577   24.706944   33.470158
H   82.761642   17.223270   20.510860
H   26.594652   86.419502   58.119415
H    9.292523   92.913780   36.945312
H   51.718235   78.307892   89.162323
H   18.139793   50.942516    5.244647
H   65.428780   50.200241   18.168568
H   65.647194   26.313814    7.481702
H   88.112564   74.298416    2.285209
H   63.635376    7.446321   47.966316
H   55.552040   98.578964   64.273613
H   76.002007   81.477943   39.865459
H   73.595772   86.161179   82.724640
H   93.691437   42.107300   97.525665
H    8.457104   88.355927   70.344238
H   64.787704   22.297852   34.131126
H   64.505676   99.530106   66.708069
H   86.251144   43.228695   37.588661
H    9.958817   94.037842   49.445034
H   96.368515   54.247437   67.299164
H   83.523567   32.356468   13.302634
H    7.704771   28.416231   38.472610
H   55.761543   79.001328   93.081215
H   11.508663    0.404531   70.419594
H    1.893080   24.225546   51.877102
H   86.550652   13.795890   19.838522
H   77.643059   43.703968   95.269554
H   94.558823    1.353172   92.019005
H   17.366686    8.584421    3.660702
H   49.161739   40.983440   90.509819
H    9.634817    8.333288   87.509895
H    1.585442   72.096016   49.215729
H   90.418861   80.003410   90.848648
H   38.160358   85.079346   95.356697
H   14.109361   24.156530   11.728099
H   47.554985   18.842510   62.702690
H   21.909260   14.605944    2.389410
H   42.083725   95.453888   40.392731
H   12.018404   18.879538   22.716520
H   55.007988   71.626160   70.811241
H   77.174774    9.413940   54.473515
H   90.482559   41.148094   29.298771
H   92.554604   29.825809   11.254475
H   79.299461    8.941878   14.264608
H    1.548105   41.197945   98.953453
H   56.654903   74.224304   42.287426
H   88.823494   98.380989   39.073128
H   86.479248   47.262653   48.225273
H   42.975895   30.506517   34.131714
H   77.210007   53.319355   71.468048
H   67.681557   66.400818   58.222084
H   99.399719   82.289841   69.654556
H   31.213264   29.539864   65.467865
H    3.131298    4.480354   31.998489
H   81.608765   68.635750   84.136696
H   55.974045   53.872780   16.353746
H   94.085945   62.262493   23.734886
H   53.800766   16.253269   45.855736
H   42.647320   22.532532   17.474541
H   27.191536   56.681107   48.945335
H   93.826180   84.851105    8.475555
H   68.764702   83.468536   19.277805
H   36.202286   49.372807    8.538699
H   31.027161   61.670891   98.866318
H   73.313171   13.050879   36.694561
H   51.513512   55.392387   32.203674
H   38.476501   99.675011   80.062134
H   85.514137   33.185360   85.605347
H   78.919579   74.487854   70.312996
H   42.814274   97.390038   17.228270
H    7.805208   39.615223   65.452698
H   61.666515   64.869873   48.259705
H   31.267698   39.588245   81.784821
H    6.647590   98.250145   80.777290
H   62.111042   63.155388   26.521273
H   91.673126   50.114620   37.252171
H   28.646376   31.030636    3.097292
H   24.067497   91.960442   61.349953
H   60.693855    8.487191   37.571564
H   15.796971   94.120926   46.502949
H    2.133306   35.153477   59.062729
H   76.869270   67.299683   64.158836
H   79.546402   69.991051    5.589694
H   75.090012   90.271667   73.439041
H   78.481712   46.698906   88.610909
H   79.158562   92.433167   16.197128
H   14.567357   67.898430   65.574593
H   89.445435   94.286148   97.901520
H   37.337788   86.833473   95.142502
H   44.765369   71.283798   79.402855
H   76.217896   57.238628   11.054812
H   87.188850   77.653526   43.031063
H   24.224762   63.952858   92.013824
H   26.275833   93.405457   72.006508
H   54.904930    7.041881   96.884819
H   23.499468   65.276573   25.187555
H   43.998772   69.862663    3.766233
H   14.755625   82.167770   60.214390
