100
TIME:    5.657, STEP:  5657
H   34.762123    3.246442   93.966873
H   44.242043   11.407424   34.797222
H   76.999069   80.891464   56.941692
H   82.426117   99.580902   30.083065
H   44.501816   26.190920   12.321114
H   40.297306   95.079445   38.977985
H   56.485584   43.325901   32.837849
H   75.257248   78.003922   88.786751
H   14.568077   42.395966   43.999229
H   20.249453   97.609505   29.211737
H   74.054672   93.864410   94.838814
H   39.929703    7.246812   90.258003
H   83.082047   19.500576   62.913750
H   74.980156   87.639412   87.740028
H   49.308922   64.721420   78.846252
H   74.067947   16.947281   63.460663
H   69.204811   56.136211   88.367371
H   22.038984   19.568195    3.425459
H   33.377811   15.670444   61.393093
H   40.106888   85.680458    1.487511
H   28.582314   93.044678    3.704029
H    4.722443   51.593735   37.532455
H   10.214101   48.614204   70.496796
H   93.440987    4.502413   86.935272
H   27.256886   37.531662   78.318092
H   20.758524   59.425682   58.458107
H   74.270126    7.321330   12.209202
H   55.219860   20.489326   53.764923
H   34.177254   62.339237   89.763306
H   17.907902   50.829063   33.103378
H   38.693878   29.329960   61.815102
H   22.943516   96.216782   75.567238
H   68.829704   54.589104    7.424191
H   17.123100   55.292412   33.429878
H   40.154297   31.294352   69.198868
H   64.390915   28.509525    1.641008
H   22.379250   97.362915   54.214764
H   30.178387   55.430042   21.640713
H    6.287239   58.160210   96.107323
H   30.367598   82.594093   83.115746
H   48.635498   50.286888   75.622169
H   23.472988   63.787476   68.757774
H   59.967892   97.423294   10.085555
H   18.125721    7.595518   33.847649
H   65.951836    8.696897   40.195538
H    5.102649   70.815445    6.143366
H   85.929977   32.485550   79.767494
H   56.541531   53.635239   18.600988
H   30.389824   63.935921   18.813480
H   44.522099   16.834509   88.006393
H   43.113155   23.496824   13.060935
H   80.052391   38.812061    2.689322
H   26.215008   54.809937   74.320244
H   45.687180   14.902061   81.444603
H   90.375847   54.358044   48.464138
H    0.641512    6.583108    0.049166
H   54.879951   26.316628   94.015129
H    4.823997   42.654076   67.843979
H   36.432098   77.791054   77.192787
H   85.715179   62.605145    2.712044
H   16.548340   15.495665   73.330956
H   98.139931   75.287521   39.393356
H   58.115223   21.259577   45.552979
H   31.495243   72.579208   73.554001
H   56.860306    9.028561   22.380987
H   53.827477   61.046837   80.669319
H   33.697266   43.938999   40.182816
H   89.597954   41.067661   36.639912
H   38.846684   43.310387    5.434510
H   44.994911   32.672424   89.821106
H   42.397987   10.498426   94.287819
H    7.522076   63.780136   70.801865
H   38.144821   38.487404   16.701492
H    5.678669   91.387596   67.033806
H   34.918171   36.705524   30.237476
H   59.396210   70.134575   15.285500
H   80.574242   36.234806   91.095055
H   97.756470   80.823555   26.854448
H   32.786587   36.902332   80.798470
H   22.099831    0.855511   33.565552
H   21.570589   87.805923   18.094748
H   65.784180   81.157303   13.732663
H   75.693367    1.724272   68.688507
H   39.342369   96.240524   46.736980
H   76.880013   95.035637   99.369797
H   21.094173   16.844364   34.622574
H   44.972969   92.042793   93.291031
H   47.009117   52.395374   36.923454
H   73.081894   79.199715   81.923836
H   66.184814   76.532272   26.442011
H   55.530418   78.892654   52.927288
H   96.859612   20.939741   41.314545
H   48.078018   97.256569   56.469074
H   93.995216   56.376781    8.241937
H   58.785606   43.010441   46.077335
H   61.166595   72.342987   75.257446
H   13.576504   92.324486   11.850051
H   27.358011   66.365082   65.315147
H   39.226532   61.235401   71.204765
H   90.589462   33.467190   52.784573
