100
TIME:    1.033, STEP:  1033
H   47.464516   27.289864   98.200272
H   72.535454   60.754284   43.161526
H   97.512817   48.221920   11.210754
H   81.649994   90.089745   83.541374
H   85.918564   55.557030   37.695686
H   11.997868    0.089377   81.047325
H   98.831688   31.090727   71.234718
H   38.694534   77.969193   13.346849
H   28.234886   86.974579   35.063194
H   46.610283   31.215916   48.142471
H    4.167877    7.807547   40.245667
H   16.412678   75.469719   19.398878
H   77.552567   99.209267   22.457373
H    3.933819    1.892299   35.852077
H   93.065727   77.752808    1.116054
H   59.989639   21.382824   47.292465
H   41.014870   50.310928   67.407463
H   23.218925   44.465958   63.734177
H   61.349754   21.688410   17.785639
H   64.687019   83.874054   86.661385
H    2.976925   53.379646   29.207195
H   61.398609   45.463379   31.297306
H   71.951988   86.220894    2.793892
H   23.064667   49.070957   30.354973
H   92.638542    4.249828   44.184181
H   41.922405   96.829987   92.350067
H   73.002762   99.535538   20.464933
H   45.379150    4.656247    0.917796
H   33.632721   42.813572    8.342365
H   40.602535   65.273148   65.509117
H   56.737034   14.677927   27.668873
H   30.981298   23.972214    3.634099
H   43.121105   92.903481   90.857750
H   21.748756   79.054482   28.232038
H   55.094994   80.833199   87.631332
H   62.370300   65.632095   17.089926
H   78.876762   66.705421   89.861763
H   21.295784   40.047337   95.338036
H    4.279626   58.456490   43.119095
H   65.895439   15.476984   19.308001
H   64.645905   91.626884   66.681564
H   38.781029   58.221115   51.332157
H   20.138670   69.694534   76.087227
H   13.395491   30.082895   81.734993
H   67.049416   91.134384   44.505417
H   64.758369   82.623512   87.369209
H   46.987598   81.465607   36.450142
H   56.294582    6.019132   32.494091
H   95.227470   46.895607    3.266255
H   47.555103   46.472317   11.416153
H   43.465809   69.914009   64.308655
H   55.334511   67.885178    6.246409
H   30.307703   27.998413   42.875038
H   52.768742   90.349937   77.400284
H   58.523766   49.063580    9.171818
H   94.858749   11.446312   57.461044
H   61.737961   59.740227   54.234367
H   49.139099   79.333443   86.947220
H   71.746666   82.414993   32.179058
H   90.851730    7.186881   34.228600
H   24.863317   30.532211   33.854820
H   62.247955   18.330338   48.615891
H   44.300949   36.711113   62.690285
H   13.973101   47.413750   99.092247
H   73.325081   78.340599   91.762413
H   37.886391   90.919655    7.264654
H    4.688696   84.075745   16.935589
H    9.009442   76.615280   15.585975
H    8.385721   75.561539   95.443764
H   51.311478    0.099271   99.557922
H   89.229240   25.115969   49.758213
H   88.791580   17.242455   32.252663
H   39.638702   67.208351   35.261150
H    7.454545   84.009659   41.814339
H   11.977534   30.113535   79.706108
H   50.081364   73.779198   26.422203
H   60.745571   37.013054    9.312643
H   80.512543   83.175835   71.489929
H   11.065973   50.476414   29.206776
H   48.865311   52.695793   31.927216
H   31.096928   39.968517   41.728191
H   18.829578   50.973831    0.398177
H   83.157539   24.498388   28.287907
H   21.230558    0.556740   69.076912
H    2.030359   84.269363   47.614647
H   27.516605   46.999241   13.518051
H   36.146461   28.245415   72.800491
H   72.584427   22.589737   85.003654
H   77.120064   36.655861   19.748554
H   75.006271   66.777740   61.142208
H   66.297157   29.211203   55.276806
H   54.718494   73.197639   53.204468
H   51.562935   58.581261   98.830223
H   47.071640   75.892647   96.468880
H   38.732929   57.200623   39.823021
H   79.243134   54.938774   14.093336
H   80.607834   26.962004   77.780197
H   10.657975   25.033051   39.508263
H   59.502281   41.303150   58.520802
H    3.394237   52.170811   98.192940
