100
TIME:    9.447, STEP:  9447
H   78.460114   55.686623   90.497025
H   39.572495   16.782391   73.769463
H   42.156124   53.558723   12.446661
H   83.062256   43.434746   22.339914
H   10.545996   29.975693    9.559391
H   81.523315   90.973457   14.313586
H   57.851398   99.243660   29.220882
H   77.370728    5.888133   40.801865
H   21.402580   78.001373    5.431821
H   16.727060   52.029926   77.608986
H   21.518097   46.361526   29.764380
H   95.274101   97.220085   20.481140
H   41.345886   90.174416   86.290649
H   87.322906   75.957588   76.161461
H   95.349251   26.180214   96.595238
H   21.679882   85.459702   48.857483
H   64.435463    6.817249   33.386032
H    3.085420   35.147774   72.045486
H   92.408066   74.667587   61.064617
H   37.996395    5.196283   59.528282
H    3.677943   15.738831    0.835914
H   68.073441   56.625015   14.778931
H   59.611137   17.797049   62.060822
H   41.295422   49.841766    5.457329
H   91.706161   36.966393    6.305141
H    3.061965   47.605942    1.876762
H   47.453957   49.777309   87.408798
H   35.431389   97.393738   79.040825
H   16.587292    6.197997   10.607616
H   63.232887   57.026260   34.397530
H   87.854485   69.185730   61.962524
H   62.246662   91.502029   24.707939
H   35.791420   77.295090   48.857323
H   77.260132    7.961532   73.764519
H   45.846092   44.399513   99.814957
H   93.849365   25.362448   89.727028
H   85.889099   58.565681   52.851948
H   73.528633   86.069359   89.090019
H   46.312069   75.583397   28.827610
H   73.390991   27.786407   81.305374
H   89.616333   80.331284   64.911705
H    4.072102   78.649582   62.245342
H   92.588043   20.158775   83.839256
H   76.126747   71.216896    4.411853
H   37.198723   59.174915   64.519485
H   56.184181   43.097881   21.540819
H   15.549994   38.599888   16.152636
H   56.764217   92.671036   53.103992
H   41.174385   50.049053   67.631317
H   24.075949   74.528099   22.998299
H   43.883945   57.675163   51.432098
H   64.253296   87.127655   53.899391
H    4.822235   76.785645   54.206566
H   57.917076   53.070572   48.685799
H   88.610359   86.494797   80.689835
H    5.361986    2.596396   71.028610
H   95.151398   16.957573   54.475792
H   22.612726   84.734306   70.221947
H   35.343960   37.939537   86.239296
H   35.614086   53.916889   94.915443
H   55.627621   39.241856   77.837868
H   63.625420   40.010727   67.910164
H   15.417079   62.636742   85.661316
H   91.748352   93.224808   70.655853
H    7.289767    6.326234   75.326500
H   21.005238   72.635277    4.764859
H   29.618401   74.967926   23.163620
H   27.796997   57.821602   17.823837
H   27.739016   70.985168   67.734711
H   21.888641   23.143160   81.806686
H   22.040104   52.624813   48.832802
H   95.330040   37.923241   48.506527
H   91.029953   51.022045   19.527470
H   22.245167   51.518696   41.844490
H   17.542307   42.225445   17.579336
H   48.992386   13.036441   60.264877
H   24.772102    8.137775   58.289467
H   75.809273   33.012032   36.172752
H   14.532350   25.769901   23.085878
H   36.235100   94.395912    7.053769
H   95.756310   27.015909   44.617744
H   50.190636    5.741437   96.668144
H   15.416788   65.105507   29.627575
H    0.088108   20.559502    0.580635
H   92.341187   57.952324   31.972857
H   33.868656   56.059669   97.811417
H   98.098610   16.478310   74.012566
H    7.962229   49.118263   97.629105
H   51.737309   68.178444   50.926521
H   31.096884   20.600487   61.921722
H   10.633255   83.540497   32.965477
H   77.281235    5.984427   13.531030
H   91.024521   10.970900   49.555595
H   59.249062   86.232468   65.377861
H   93.256653    3.524145   33.166542
H   74.205048   22.680223   79.498978
H   12.744126    9.822648   93.882141
H   20.042414   53.896900   89.228050
H   58.679710   77.596626   53.753071
H   26.001205   36.209515   87.680374
