100
TIME:    3.933, STEP:  3933
H   51.349274   61.345184   95.545242
H   91.865974   17.985014   26.092115
H   47.359421   56.859627   77.175713
H   82.136749   70.610466   24.581514
H   59.943527   88.004799   59.064636
H   67.036018   96.947182   68.244987
H   46.841190   26.912434   98.018654
H   10.760254   28.856495   47.079441
H   56.947289    8.151485   52.519444
H   67.362129   72.855415   61.704170
H   34.416946   24.495090   60.902157
H    5.727318   20.831369   12.973959
H   93.084534   23.755600   34.220970
H   60.341743   92.953255   56.544117
H   28.341770   18.715977   61.718395
H   43.387558   67.734489    6.567550
H    7.838653   42.107601   31.424856
H   85.184166    3.438737   63.193363
H    6.526233   43.348404   70.566727
H   86.556786   22.294600   84.109581
H   30.886917   64.675720   50.493500
H   39.440887   49.305099   84.347015
H   33.232811   62.635384   19.822411
H   53.623192   83.851837   14.973801
H   88.917999   74.253448   65.585915
H   28.622324   10.420098   20.530745
H   22.931490   78.987808   78.007301
H    0.687325   40.018845   96.774315
H   96.689667    5.924768   71.257332
H   51.801575   93.497643   96.051239
H   70.845177   74.734703   98.212502
H   14.089091   43.845940   35.166527
H   47.393078   80.725533   52.112656
H   44.280533   13.286686    6.060716
H   83.007019   61.615471   64.219025
H   14.521757   93.443085    7.110911
H   57.024193   60.500961   18.370169
H    1.435297   86.974693   99.983360
H   79.060089   95.725395   63.175301
H   92.748909   43.989182   47.474957
H   66.459076   91.135345   35.005474
H   78.145493   88.373154   87.577332
H   45.118069   87.084976   85.558311
H   28.209898   78.684937   65.281738
H   15.497400   76.714264   92.667786
H   27.346561   37.932758   99.137215
H   72.461227   38.728294   63.220306
H   56.449459   35.878586   11.929634
H   79.994919    6.719307   87.585144
H    8.364291   90.598839    8.586033
H   43.244556   89.937431   94.885742
H   96.269806   98.785873   15.867199
H   90.456505   44.813599   74.447792
H   85.613884   43.036362    5.369513
H   27.642502    3.266515   33.798458
H   98.487289    8.396948   58.738205
H   45.586231   76.061562   30.048574
H   33.196526    5.464067   12.249748
H    0.465074    4.947132    9.544174
H   99.482346   30.091558   51.746712
H    7.796972   95.670189    7.748940
H   59.324760   91.334274   17.397644
H   41.071819   38.902641   63.772850
H   13.111097   63.189049   20.358364
H   88.429970   46.722141   61.832310
H   59.734718   46.751686   78.733459
H   72.016464   84.336090   56.947735
H    8.686588   42.470169   54.222744
H   52.923645   67.186035   13.560869
H   10.069365   45.961617   93.451355
H   97.141090   27.798828   14.968693
H   49.672821   20.996719   44.577892
H   50.552795   23.764347   60.908981
H   43.631268    0.490862   69.468620
H   51.796131   34.245899   99.545570
H   18.634829   59.642387   31.288887
H   24.045515   85.660446   60.606220
H   16.759823   93.551109   31.644754
H   50.113258   41.966267   61.567009
H    6.643438   94.753883   82.089806
H   87.838882   69.970352   15.055278
H   36.422569   69.913040   57.902588
H   66.639748   72.906708    4.498796
H   20.734690   48.714546    4.198791
H   60.824951    2.872191   66.492188
H   60.777004   53.521530   14.902833
H   29.830908   17.391792   11.084106
H   19.264128   90.408897   54.841171
H   37.305527   75.189186   96.023933
H   18.608263   47.462463   64.810165
H   84.977142   85.802071   16.519571
H   69.298599   91.284721    8.467836
H   37.566338   45.527275   23.149454
H   27.367054   51.799065   92.000710
H   88.590477   97.434715    6.463716
H   18.771301   40.420845   64.304359
H   50.419128   93.387581   10.998444
H   21.302992   49.724823   93.102592
H   21.354179   53.803913   15.606468
H   83.504601   77.705055   18.861383
