200
TIME:    0.272, STEP:   272
H   10.454461   62.368793   15.886757
H   28.249502   33.345329   91.196251
H   17.466976   70.538788   46.924370
H   18.921181   77.347786   43.662903
H   14.870391   84.540283   53.198418
H   88.577576   51.946465   64.602165
H    3.822848   55.281425   50.270748
H    3.605729   90.268219   23.936466
H   88.728035   87.026489   46.938778
H    9.734737   74.450645   94.810249
H   13.309063   95.277779   93.972900
H   30.910126   42.876968   14.267026
H   11.959575   88.069893   59.980156
H    2.891109   53.341946   43.807796
H   18.076887   72.190926   42.899857
H   28.367649   24.647884   53.632698
H   85.712784    9.217216   13.878399
H   35.802292   84.705368   42.950665
H   66.090118   28.543407   42.954903
H   90.158058   79.265221   36.230244
H   58.469109   78.355667   24.374409
H   89.316628   50.037514   69.341537
H   94.046959   62.308792   48.368385
H    9.286027   88.350929   91.485741
H    4.637346   13.990986   44.268505
H   18.634604   63.756321    5.899664
H   99.515388   59.438847   50.368484
H   95.244659   71.449501    0.815471
H   12.416371   55.557076   38.150986
H   91.603378   21.621584   97.518967
H   13.319714   52.786167   16.233936
H   31.344143   64.256332   94.390968
H   26.350105    9.674107   73.570023
H   95.367470   63.612831   38.849625
H   46.452793   88.478745   33.975681
H   32.015968   49.192337   79.843422
H   87.182922   73.738327   86.195168
H   31.332047   45.583073   13.728661
H   51.885925   45.254742   45.142937
H   89.775864   39.556896   62.446381
H   80.513832    3.728977    2.586430
H   14.932085   42.435867   38.882286
H   76.125687   87.046822   51.516514
H   37.209976   64.788094   19.892805
H   29.870329   77.271469   45.518700
H   40.609474   13.005703   43.035900
H   80.577179   24.644432   96.880669
H   89.336769   65.550117   46.497269
H   88.317917   27.537807   61.189404
H   60.972256   17.945913    4.358591
H   77.447006   70.091087   26.600544
H   19.914850   36.248760   64.229713
H   53.039680   93.506462    8.346868
H   21.930336   82.858994   82.177040
H   75.844406   75.673264   89.738441
H    4.895437   71.561729   79.696075
H    5.339160   16.866554   49.311329
H   67.758286   59.323292    4.725880
H   27.505930   75.095627    7.900442
H   42.363178   95.809486   66.402679
H   50.315880   14.752077   41.301567
H   90.511642   16.500689   49.311420
H   72.328903   25.869371   83.805328
H   24.901367   65.197990    4.381967
H   71.862778   76.556122   19.238134
H   37.484451   17.804350   33.438492
H   84.979836   22.487000   86.496254
H   97.162224   91.522682   87.905098
H   17.660730    6.285682   61.574776
H   45.052761   42.187725   50.980885
H   58.451126   77.145599   74.137299
H   31.241146   22.980707   44.540829
H   78.509415   26.216320   98.424225
H    8.907874    8.261323   61.504147
H   79.534683    1.389586   66.108078
H   54.122597   17.946842   62.668365
H   95.292328   31.141481   71.692940
H   25.369999    6.552641   46.873299
H   11.773846   31.119146   34.229717
H   67.793915   90.488480   92.744049
H   44.726254   29.561216    0.658631
H   28.043503   68.014809   86.867973
H   10.874866   14.017314   89.343437
H   23.630548   62.905983   94.894501
H   37.768692   99.662231   56.875336
H   25.568764   84.654694   27.116684
H   37.289421    2.850790    1.844684
H   75.065376   17.353365   12.649159
H   66.666687   72.130257   77.282784
H   23.283852   87.481483   54.513454
H   39.901390   35.169041   80.612152
H   83.832527   88.816223   99.066086
H   48.779835   16.501198   94.818451
H   58.592930   93.283989   69.983330
H   25.935753   56.493340   69.272545
H   67.946877   28.424751   27.557104
H   79.739677   13.172361   99.707397
H    6.014994   28.935963   48.896549
H   36.292809   69.457474   52.994652
H   67.760826   98.447403   27.258219
H   11.293952   81.311157   70.446632
H   91.762245   77.140701   65.688087
H   23.842726   36.000519   30.950047
H   23.413561   67.998566   91.433121
H   25.296320   27.052200   26.125011
H   88.689949   25.206171   42.392601
H   67.174171   30.494120   56.110306
H   64.562721   35.503014   17.504240
H   73.609795   39.685722    0.679954
H    5.394687   27.614222    5.693881
H   47.615562   95.788704    0.818365
H   87.278870   64.150085   90.875664
H   56.538254   80.645996   93.239326
H   63.115776   18.707466   74.128784
H   62.782387   83.301086   25.650650
H   12.732554    4.861155   80.377991
H   31.259266    8.893302   84.553146
H   40.608761   28.571552   33.338860
H   20.077612   58.915028   81.958115
H   71.627113   47.313534   50.536484
H   40.888557   21.972080   86.471245
H   16.908360   26.721973   49.129448
H   33.007881   20.472958   24.978430
H    3.605839   66.167213   16.463898
H   75.958855    8.159799   91.754784
H   48.894711   63.228039   24.913527
H   94.591225   49.339340   69.818924
H   74.728722   87.820946   35.272839
H   92.861519   51.325344   84.161018
H   69.296219   23.997673   67.046776
H   49.900703   84.043121    4.634243
H   80.471733   86.368759   10.081624
H   92.333260   84.151619   97.613190
H   99.351471   13.823421   50.101013
H    6.006909    0.791519   54.946426
H   61.505783    1.585781   83.210167
H   68.945694   86.646065   56.931679
H   91.491295   63.221806   82.692757
H   47.149658   44.781143   71.542519
H   43.465279    7.555171   94.568329
H   52.201885   62.127625   15.943604
H   55.765152   41.983116   46.992863
H   53.976814   57.349979   98.304901
H   56.246773   25.369308   78.654701
H   41.806087   68.705795   50.114933
H   47.112617   62.527122   28.313576
H   45.488091   96.637657   47.052769
H   41.778664   72.227531   68.641380
H   66.040741   63.456291   97.626343
H   10.482031   89.024162   88.799423
H   75.092293   61.853405   51.102619
H   35.134415    6.224280   47.149521
H   77.662323   30.642056    2.341191
H   10.755808    1.877257   75.161751
H   14.881458   54.724133   61.332191
H   64.452049   43.608250   55.045456
H   59.646221   61.843182   81.134689
H   46.501022   36.146469   10.473827
H   10.917234    1.613757    1.418241
H   63.320911   55.638153   79.469101
H   54.270279   83.109337   82.565056
H   42.101665   22.890469   35.266754
H   66.596794   33.174805   37.218746
H   12.449270   21.119724   69.829651
H   58.647789   23.174177   10.138968
H   12.465026   63.421108   62.126896
H   74.348808   97.049385   52.560932
H   23.660168   32.388496   49.335957
H   94.507774   28.066145   36.781372
H   27.933281   10.218228   90.042999
H   78.753662    6.014373   35.973389
H   45.057472   64.258636   57.556381
H   38.291229   76.079239   89.523636
H   70.830772   73.777191   74.985184
H   69.950562   94.795822   97.726784
H    1.895359   47.833702   23.317446
H   35.089008   53.920784   88.246590
H    2.013609    9.231377   65.289383
H   74.783211   20.635668   68.760574
H   84.778313   54.798363   86.836418
H   80.833588   86.336143   40.975281
H   19.873114   30.145107   70.784378
H   64.162003   90.132553    6.703376
H   52.177696   25.279604   78.367531
H   85.936783   86.946442   78.264999
H   99.930351   36.493790   84.114357
H   32.466248    3.976426   99.974136
H   88.883698   68.580025   26.646236
H    5.691681   61.316105   66.909134
H   50.195480   58.099239   66.107315
H   49.348957   29.965630   79.072945
H   47.390587   85.798828   24.216795
H    4.811271   18.285316   58.539246
H   34.544483   64.808228   33.958179
H   83.796463   52.826015   21.711609
H   75.406265   10.461967   29.127956
H    9.673987   86.431969    4.546857
H   27.979498   96.770195   46.064247
H   11.486583   11.701433   76.585915
H    7.673981   33.908634   97.304214
