100
TIME:    3.255, STEP:  3255
H   97.200348   23.521141   96.165970
H   10.726223   81.226196   83.324448
H   35.705261    8.082053   85.131371
H   82.022949   98.543205   61.747059
H   66.016312   33.660107   77.448517
H   77.547005   97.681709    1.099022
H   82.375343   81.131081   44.998177
H   64.049713   70.199997    9.330061
H   73.613823   73.338379   95.195854
H   85.890846   63.120338   35.152550
H   97.482864   97.214722   26.211733
H   31.606483   86.847137   61.234505
H   36.211960   64.775345    1.608915
H   93.912758   95.043037    4.946141
H   20.093853   79.277725   94.306953
H   70.647842   27.035004   62.848000
H   62.359413   97.264450   69.703842
H   70.700523   36.410118   86.698425
H   95.965492   14.903567   34.848080
H    4.825493   36.692051   37.948143
H   71.120407   32.171906   68.894272
H   74.440369   48.405045   42.084946
H   42.285088   68.149513   39.221771
H   16.616776   75.720306   65.330162
H   13.167012   28.021500   60.578712
H   31.733721   30.621836   84.079826
H   81.396912    7.169698   64.558205
H   57.893612    8.372086   74.366051
H   81.947388   44.410812    3.307337
H   25.804054   10.278749   42.151398
H   44.160389   13.937976   51.853706
H   71.279915   62.576393   97.932426
H   99.634613   30.330524   91.033058
H   15.632497   75.421455   34.622223
H   99.859772   12.867200   22.935440
H   55.563931   40.182346    9.450963
H   91.995979   85.330063   64.946587
H   29.456642   99.378899   52.136898
H    7.676799   10.496870   28.878237
H   56.608112    7.460658   94.130714
H   12.795778   67.868408   19.032087
H   39.080315   57.946129   55.723663
H   39.278057   83.019211   36.585804
H   71.505417   67.325623   98.990929
H   74.307793    3.467086   34.650448
H   36.093647   25.000935   96.385323
H   67.164352    1.855056   56.707840
H   56.413250   28.896551   69.978889
H   60.174019   62.869301   14.630227
H   94.146599   80.284416   56.004444
H   43.296284   55.394394   87.737030
H   63.319523   61.700447   60.378536
H   76.397026   40.882324   13.823544
H    1.317860   54.100830   75.450897
H   81.625107   43.844223   28.032644
H   97.638962    9.110785   81.818924
H    2.605617   95.624825   65.565025
H   83.682365   69.492996   29.715191
H   46.991081   76.300232   61.596233
H   44.221802   77.978500   71.030647
H   65.028603   27.200077   60.609264
H   83.388298   97.645004   48.077103
H   95.042030   85.167534   10.265366
H   66.555717   59.500893   38.768108
H   61.520954    0.871981   98.692665
H    1.385508   80.457191   38.644806
H   26.414078   60.893963   24.214087
H   55.520683    3.693573   21.810423
H   19.130203   15.902779   56.085804
H   96.332581   11.859182   94.879028
H   18.671272   73.929466   23.102810
H    5.578008   43.498093   94.937378
H   94.758942   57.299152   78.290276
H   58.559597   43.396866    9.754219
H   19.108633   33.278599   48.149326
H    2.605431   16.187227   76.908691
H   62.488834   44.425171   48.615833
H   84.906143   37.884045   94.200623
H   17.602652   43.957767   53.999306
H   39.894081   31.679073   40.499985
H   74.576004   62.956127   74.532623
H   85.550629   65.485184   14.596350
H   23.742620   61.588776   39.922489
H   74.088165   90.696136   66.121918
H   93.837311   45.283009   32.216591
H   76.379028   28.615189   67.820267
H   84.548805   66.687904   78.754227
H    8.352255   44.691116   61.891602
H   23.234093   12.939289    1.569610
H   78.553192   75.356888   40.575752
H   57.230621   49.191586    2.201414
H   19.129507   40.299896   95.547523
H   94.106522   25.182928   70.718590
H   61.836842   10.672035   46.286133
H    0.311940   58.167439   90.883995
H   62.771240   67.194893   99.323738
H    4.236083   54.478313   49.991707
H   18.814909   43.952057    3.953588
H   53.652702   50.881321   72.397102
H   41.391018   95.106117   84.175323
