100
TIME:    1.513, STEP:  1513
H   15.004509   83.271561   97.760818
H   59.183403   86.777687   73.439842
H    5.761852   82.755608    5.574697
H   81.730560   70.314354   57.231838
H   81.619247   94.031151   24.680550
H    4.554418   99.568947   28.582907
H   73.672997   63.504055    8.771431
H    0.967480   19.496082   69.276192
H   16.435570   40.824677    4.848437
H   33.492607   38.107796   66.939507
H   59.519455   27.121128   94.009811
H   98.091568   99.529778   85.232353
H   47.019936   70.168739   74.748528
H   80.166878    0.412462   72.380775
H   98.903130   34.879322   78.044632
H   40.690323   79.398552    7.448906
H    2.424562   82.054092   11.110669
H   33.476494   21.123672   47.093552
H   68.826485   41.826347   43.072506
H   51.753914   73.682724   19.344675
H   74.493073    5.592804   16.179241
H    7.424150   46.096924   90.425636
H   65.543297   82.317085   89.060791
H   78.467415   54.827793   94.705215
H   75.470573   66.178932   47.725441
H   39.721478   82.525787   47.358749
H   31.610752   79.584366   29.990080
H    4.879848   27.061428   16.783724
H   44.069733   86.363373   85.652458
H   59.008297   53.393265    3.668144
H   75.618874   57.723099   89.686737
H   61.288914   10.711350   59.198082
H   76.931961   57.783852   34.099945
H   42.029518   35.065224    8.011339
H   43.163841   44.549019   16.860191
H    4.103860    3.337355   15.438291
H   24.915733   49.127296   27.683661
H    1.457469   31.261936   29.209721
H   82.701981   48.209908   97.112503
H   20.686087   70.541954   57.074718
H   31.844322    8.097941   77.990158
H   95.641357   79.762627   73.883423
H   24.273191   72.572952   10.759332
H   82.744316   38.128113   28.667467
H   25.414337   72.193954   85.581375
H   58.567722   91.774940   89.314827
H   52.055958    7.357627   40.551704
H   56.320217   10.961149   62.193798
H    9.258473    7.143400   84.120316
H   57.622242   53.778225   77.843102
H   43.429188   23.573343   69.369690
H   78.662148   23.343615   74.736954
H   40.264977   30.781616   14.996517
H   41.654240   82.520348   98.581924
H   20.309654   91.142517   13.244999
H   95.459335   10.941856   41.120712
H   92.169815   45.890129   99.886223
H   13.396025   34.003853   74.583939
H    9.604652    2.695903   95.329300
H   59.175045   44.082630   20.576256
H   55.142071    8.211335   96.430992
H   45.211823   13.862125   26.895920
H   76.859314    3.977668   29.760597
H   46.934746   50.024834   86.062462
H   92.375374   40.003345   36.463795
H    8.399323   67.057350   35.645718
H   66.177750    0.672331   40.110607
H   75.852455    4.066687   38.532749
H   32.309990   41.071793   65.341225
H   61.034378   24.242189   98.547180
H   73.987541   92.455864   44.001377
H   49.212872    1.311434   67.397575
H    8.340931   43.466404   22.952801
H   96.891014   53.634872   13.286507
H   35.119827   30.796518   16.093540
H   61.430241    4.541248   94.124260
H    4.325151   95.410141   17.805613
H    3.063822   51.790131   97.996277
H   34.075005   49.070164   34.559822
H   25.325272   26.552378   90.574959
H   40.490238   44.934338   70.417152
H   54.845753   54.108597   60.261429
H   13.530143   32.509369   74.005676
H   54.251797   41.630962   25.234138
H   78.658676   54.246201    1.084167
H   16.468021   64.632164   46.850639
H   68.204567   93.345490   95.688675
H   80.311478   84.160263   80.015862
H   87.081001    9.931090   15.820984
H   32.568634   47.027473   78.302849
H   85.940712   55.128147   65.413528
H   90.233635    9.298250   62.348755
H   82.361275   72.964645   35.965195
H   93.464577    5.006783   28.832867
H   30.434242   14.203796   50.853294
H   18.889221   35.983696   89.300369
H   42.507248   54.508389   50.175217
H   12.420365   29.119965   31.828777
H   36.636070   43.372242   18.314503
H   33.203812   39.840488   51.962471
