100
TIME:    1.422, STEP:  1422
H   21.158243   91.616745   97.844131
H   61.714729   81.844170   67.699577
H    4.197694   76.208595    6.643147
H   81.715286   74.063438   62.220203
H   82.434326   86.737099   27.148003
H    5.965619   99.667534   19.570871
H   78.442665   57.359028    1.655037
H    8.119904   11.623602   77.631096
H   18.672523   49.573929   10.576726
H   35.979500   36.801170   63.376366
H   67.984055   23.459522    2.775605
H    1.564630   94.968391   91.709938
H   52.808105   75.674339   83.793541
H   84.672722    0.693016   65.456078
H   97.796455   43.007198   82.418564
H   44.349152   87.357719   15.002450
H    9.740738   76.036118    2.825531
H   31.531830   25.548981   50.248337
H   67.408775   38.008530   38.278538
H   54.205399   75.615585   13.148966
H   79.893143   14.652374   18.649124
H   98.698357   45.976814   98.173744
H   66.758278   83.057182   91.664322
H   86.922295   53.736393    1.463410
H   78.725334   73.396614   47.054077
H   40.138737   85.237625   55.887917
H   39.458122   83.366776   28.184271
H   12.557869   22.813854   13.775779
H   42.091049   78.107056   89.954185
H   55.518871   55.645493   96.433952
H   72.039192   49.562592   96.887756
H   55.543095   13.225493   67.622414
H   70.522415   64.441948   25.901945
H   38.184624   43.404854   11.844952
H   45.425789   51.427895   11.319183
H   96.191742   96.188919   15.751294
H   16.187656   52.459816   20.513189
H    5.218527   32.927502   22.788372
H   86.792648   50.152489    5.834372
H   29.257257   79.060707   49.914661
H   38.062943    4.975524   75.846237
H    3.819937   75.678902   69.608078
H   23.489355   72.027252    4.186407
H   88.555397   36.602791   19.769987
H   33.307838   75.784744   77.794388
H   59.741741   90.039253   88.945473
H   51.095081    2.448496   39.774117
H   56.315357   10.024225   56.563229
H    6.598661   14.679764   87.749985
H   55.713680   52.393147   84.208214
H   43.436131   32.359032   68.410202
H   74.239616   31.787733   80.710495
H   38.377243   30.253967   20.281685
H   43.761364   84.004707   94.566238
H   27.554413   83.165298   12.472792
H   95.345474   11.037493   44.218567
H   86.400391   48.515877   91.231392
H   20.172428   42.597588   76.927811
H    2.427923   98.850861    2.315216
H   65.179962   37.087811   23.164513
H   49.401806   12.443114    3.526215
H   48.441589   14.709314   31.013664
H   70.687210   10.183388   36.003517
H   40.685577   49.529816   88.532692
H   88.763756   47.271709   27.988947
H   13.989450   71.581245   30.265089
H   73.478745   97.525970   35.717236
H   82.138420   98.862167   34.182423
H   27.774292   47.610474   71.048164
H   59.191078   19.665182   98.738800
H   76.877113   98.647408   45.092777
H   56.715900    4.331703   60.734970
H   14.274551   47.967388   25.286259
H   98.893303   59.393883   18.694908
H   30.732605   30.667036    9.194878
H   59.278683   98.709007    0.247746
H   96.063072    3.297238   16.195772
H   98.788467   57.740761   92.971115
H   29.712877   49.336765   33.544792
H   29.788071   31.508459   98.414711
H   38.709423   43.992901   64.978203
H   48.017559   53.514297   67.870682
H    7.772177   30.990526   65.338348
H   47.991520   33.843975   33.545998
H   83.089539   59.938560    9.905462
H   18.562649   61.289364   40.531349
H   62.126884   99.961929   91.349457
H   78.846558   91.445984   80.961464
H   85.192574   14.997735   16.565552
H   40.614586   50.771698   75.049477
H   82.216621   50.214764   63.491772
H   83.500557    2.454435   60.615150
H   76.522423   70.237534   28.925097
H   84.669502   99.486931   22.697212
H   32.007816   22.355278   48.762138
H   11.373001   39.577263   94.000610
H   49.730484   49.286053   55.408661
H   12.086246   28.345154   33.284714
H   40.971123   42.979977   25.936947
H   27.552414   42.178112   60.726997
