100
TIME:    2.314, STEP:  2314
H   60.835846    9.815726   97.027481
H   36.902168   30.205748   23.966330
H   19.530386   40.382034   96.173073
H   81.865005   37.314171   13.324469
H   74.444763   58.234821    2.963396
H   92.135262   98.701164    7.908613
H   31.694111   17.589386   71.410667
H   38.010460   88.792542   95.729683
H   96.745399   63.811722   54.429890
H   11.605333   49.608971   98.301903
H   85.012390   59.351307   16.853628
H   67.523621   39.679398   28.215574
H   96.069298   21.707359   95.136467
H   40.505547   97.943459   33.336658
H    8.646523   63.331390   39.540535
H    8.483196    9.338241   40.959732
H   38.025299   35.025520   84.037415
H   50.593811   82.170723   19.323112
H   81.305443   75.429459   85.273041
H   30.175461   56.671932   73.880531
H   26.960587   25.851261   94.438080
H   84.225784   47.155853   22.219772
H   54.848793   75.802605   66.143997
H    4.045850   64.434509   35.216370
H   46.821526    2.653374   53.634918
H   36.048679   58.657024   72.280037
H   62.541046   46.287594   45.885166
H   37.293388   64.449409   43.260708
H   61.486496   59.036079   47.787804
H   89.722908   33.568710   67.344963
H    7.128791   29.554731   26.305302
H   11.864481   88.579277   85.045509
H   33.352360   99.179543    6.260350
H   75.873039   61.658463   74.266098
H   23.252388   83.999390   65.633446
H   73.747696   66.262260   12.685220
H    1.742132   19.792528   90.799561
H   68.347496   16.601299   85.734047
H   47.399277   30.997248   20.068350
H   45.240269   95.553963   20.094500
H   77.104240   35.582417   96.861374
H   23.652069   15.710553   11.515263
H   31.172674   77.376312   68.615013
H   31.594057   51.554298    6.985004
H   55.932468   40.591640   54.126442
H   48.233776    7.052784   92.565956
H   59.808704   50.681183   47.669151
H   56.362995   19.208139   11.755089
H   32.670273   40.803555   52.168983
H   74.417992   65.968971   21.820728
H   43.368076   46.241997   77.815292
H   17.588766   49.017597   22.151798
H   56.881180   35.426086   68.477470
H   23.106915   69.454720   33.926056
H   56.543655   61.363598   20.041212
H   96.461563   10.100046   13.852783
H   42.948742   22.777779   76.068062
H   53.751556   58.358932   53.952713
H   72.776405   36.541485   33.835960
H    6.319496    5.648840   97.794930
H    5.669199   70.958809   33.978031
H   16.784412    6.405001   90.652802
H   31.189571   49.356087   74.808762
H    1.937077   54.382080   64.319008
H   24.168015   76.029297   11.059136
H   59.192543   27.237129   83.007088
H    1.911529   28.364332   78.781937
H   20.522148   49.877625   76.825180
H   72.232841   83.517052   15.101689
H   77.264465   64.532295   96.860504
H   48.552956   37.955482   34.392956
H   83.167053   74.727875   26.041555
H   56.114685    3.847851    2.413272
H   79.266472    2.944360   65.680656
H   73.737694   31.936247   76.814682
H   80.363396   55.879395   40.226658
H   77.051666   25.984449   31.974302
H   40.696255   99.413353   42.234127
H   72.476105   46.721783   43.496048
H   86.042366   82.929138   21.567909
H   56.165325   53.221050   18.291176
H   14.944820   59.339737   93.281837
H   64.209793   45.880554   50.296909
H    9.351842   10.173555   52.071503
H   39.657349    4.141285   23.435974
H   98.031677   94.051216    2.474331
H   21.701559   35.106277   33.883850
H   93.205994   20.029907   71.682564
H    3.703830   65.332329    9.268309
H   61.750736   14.070068    6.938699
H   18.721069   98.381577   82.329178
H   49.502155   69.537407   77.613731
H   33.754124   96.969223   97.932205
H   70.885353   53.594845   82.839363
H   16.583332   42.455986   69.260063
H   85.048477    4.354519   47.927917
H   78.928055    0.476406    4.109076
H   15.361354   35.940002   19.010651
H   98.480003   46.825039   51.216881
H   82.948532   19.266155   74.814362
