100
TIME:    6.247, STEP:  6247
H   94.863602   49.140404   93.426712
H   27.947742   43.380299   71.999855
H   87.145096   23.337914   50.014126
H   82.525146   75.273651   97.742798
H   39.217239   73.482025   96.324265
H   31.146076   94.440254   97.407341
H   25.565392   83.165123   78.976616
H   28.884415   29.046879   34.615147
H    0.064689   85.669739    6.859897
H    4.132101    6.081468   52.313053
H   19.174301   17.603888   38.006920
H   17.409485   36.820301   48.260475
H   45.432816   83.821693    4.288261
H   45.766441   85.820869   32.639668
H   56.482063   12.019989   50.483631
H   50.345871   65.343544   14.485284
H   21.760658   95.161949   42.077400
H   34.656246   90.860184   82.971718
H   42.565052   40.423325   92.478989
H   24.212646   73.148720   41.657402
H   93.570892   34.308880   87.688789
H   61.286316   52.376968   87.288544
H    2.335971   43.815773   53.616760
H   38.621548   11.560518   43.117054
H    6.156316   90.741089   82.675392
H   18.068972   41.982979    2.977930
H   23.392738   82.797134   23.916830
H    5.438548   48.028542   73.267105
H   47.006081   15.868853   61.872986
H   40.530247   36.226707   80.007370
H   61.916306   82.235909   15.136177
H   60.196629   79.912918   20.947945
H   10.386940   11.422300   60.576050
H   42.052879    1.222532    8.575586
H   25.485703   86.684517    5.122520
H   15.678789   74.720482   99.785622
H   78.967201   75.756470    0.704615
H    5.793688   44.631321   63.273632
H   81.384857   45.304375   38.931267
H   74.795273   27.359821   29.535028
H    8.313793   70.530876   89.522316
H   73.750809   66.100754   98.880760
H   65.048981    0.961697   52.700768
H   80.451263   17.498495   91.534508
H   14.775139   85.417252   90.682602
H   97.488152   82.068802    8.540331
H   90.539352   64.571121   85.430183
H   56.573040   59.712051   55.106876
H   47.634468   15.073845   95.277939
H   56.898335   25.815218   46.742004
H   43.072643   66.535965   19.280071
H    8.725407   84.064636   63.959480
H   38.454159   58.230957   40.052876
H   32.025604    5.274814    7.479735
H   43.399834    6.061704   53.483135
H    1.376390    5.962485   79.964172
H   92.285011    9.292106   50.129173
H   60.891022   86.935234   52.647446
H   82.964310    2.719857   31.900276
H   46.780556    7.952520   85.931053
H   53.766376   88.057388   27.330822
H   77.199684   69.795883   12.696033
H   98.168831   80.998817    5.094910
H   72.010910   75.793167   57.536404
H   80.277664   61.907772   77.324776
H   17.583561   31.716087   15.555221
H   86.359695   64.334656   68.667313
H   48.842796   74.809731   64.845322
H   68.253304    0.916757   68.432953
H   56.945976   62.349777   88.578735
H   23.662395   70.355164   87.211708
H   58.872501   44.199295   13.997504
H   99.674561    9.305199    1.572525
H   92.689674   54.045658   31.977350
H   63.362156   37.547276   74.962906
H   73.342857    7.946441   75.584869
H   34.144131   85.106956    1.532982
H   25.475750   42.244507   59.439667
H   61.077526   35.169315   87.379433
H   93.166702   68.715950   82.736595
H   33.116531   93.909744   53.357380
H   10.067385   84.983582   64.379387
H   13.010949   11.590383   24.875954
H   79.932747   46.728661   92.850548
H   48.152443   58.132912   42.175735
H    7.513643   38.516754   75.593796
H   84.377724   49.144997   21.424551
H   56.497948    5.182070   30.806129
H   85.325546   46.348915   77.098396
H   14.019673   52.258854   47.531395
H   79.675621   10.752293   65.387009
H   40.513638   65.313416   52.554398
H   85.898300   14.959599    2.094676
H   51.015224   92.171455   48.024582
H   48.585564   90.161087   59.635380
H    9.898223   49.044037   44.783356
H   66.744865   26.182379   77.918533
H   26.219172   95.560791   53.471619
H   11.120343   63.778660   21.785179
H   27.236513   18.327141   95.946693
