100
TIME:    9.312, STEP:  9312
H   87.589752   68.066841   90.620621
H   43.300980    9.466757   65.257805
H   39.835606   43.846123   14.031525
H   83.039597   48.996574   29.739721
H   11.755693   19.154846   13.219641
H   83.616211   91.119713    0.944068
H   64.926384   90.128441   18.663708
H   87.981461   94.208725   53.197533
H   24.721138   90.981033   13.929613
H   20.414862   50.091526   72.323189
H   34.075470   40.929474   42.768669
H    0.426095   90.453194   30.090229
H   49.954361   98.346184   99.707016
H   94.007401   76.373695   65.888557
H   93.709541   38.239082    3.087724
H   27.108330   97.267258   60.063538
H   75.291328   97.888084   21.096449
H    0.198374   41.716911   76.725662
H   90.304871   69.004822   53.952686
H   41.633213    8.063200   50.336845
H   11.689291   29.178377    4.500358
H   55.130856   56.445801   26.275436
H   61.413582   18.894480   65.923203
H   53.839405   48.226776   15.483780
H   96.534653   47.672913    5.308647
H    3.698807   51.585739   14.580957
H   59.095688   55.389606   84.730881
H   46.821808   91.092392   74.579002
H   13.651677   93.949760   16.988785
H   58.056267   60.367477   23.665661
H   82.541908   57.080074   72.643295
H   53.722645   95.232574   37.205574
H   26.281723   87.172485   36.695457
H   71.556168   20.333344   79.452003
H   49.205849   54.620918   91.601990
H   82.113907   14.788278   90.151375
H   72.940338   63.509529   42.214436
H   79.109001   88.539223   79.562813
H   52.010883   78.524986   41.910141
H   86.106979   40.425148   70.684341
H   98.842789   75.698486   61.731167
H   15.449389   78.120178   55.353825
H   91.426239   19.348705   74.087517
H   84.745522   68.950966   91.212105
H   48.908432   64.500786   52.966381
H   57.925858   40.522961   20.992361
H   14.494534   31.257296   14.856194
H   56.755978   91.280579   44.750950
H   37.228577   61.229359   73.015991
H   21.242506   72.472282   32.437466
H   43.132069   70.651207   51.178726
H   57.692394   99.654129   62.761238
H    2.022054   76.002869   62.047714
H   61.043030   55.273674   42.728462
H   99.359108   74.664581   79.542450
H    5.193844    2.738403   75.624329
H   86.592361   20.852913   41.636208
H   32.664734   97.483253   73.699120
H   24.696503   32.234543   96.602837
H   44.522282   43.539959   98.755165
H   47.110813   45.519512   88.362083
H   68.416832   41.267288   74.017876
H    6.251882   71.848778   94.918671
H   82.478638   92.489410   74.320480
H    1.931332   17.108952   62.754704
H   29.298027   79.346550   96.782478
H   40.449661   70.300110   16.645466
H   37.122330   50.100960   11.370056
H   21.010233   80.685410   76.201050
H   19.146866   16.362879   82.093018
H   26.327347   61.811100   50.451912
H    6.447089   42.405663   38.611622
H   99.832062   57.699329   22.989193
H   25.216625   60.062283   49.865883
H   11.039601   42.026661    7.343729
H   45.800514    4.384192   69.348770
H   12.510919   19.822765   55.894791
H   69.466728   41.838860   28.716812
H    8.058742   26.166439   21.579035
H   42.855736    1.749974   18.683983
H   93.113411   25.619272   36.548973
H   40.060898    4.865063    7.962336
H    6.877819   62.847813   16.770481
H   90.799858    9.007019   12.910568
H   98.914444   66.397324   45.059631
H   36.976070   51.100372   88.436646
H   89.082268   26.293907   67.575264
H    5.791184   59.920570   99.027802
H   48.935795   75.695152   52.030647
H   43.033146   26.155106   57.096321
H    5.108248   76.250381   30.114525
H   67.292603   95.831207   10.959199
H   82.370728    6.920034   39.115837
H   46.963600   78.099838   55.104961
H   95.590561   15.616955   30.064600
H   63.054611   28.010824   86.471863
H   23.459480    2.075485    1.646099
H   20.302996   47.217556   91.938927
H   65.110832   77.013664   65.060997
H   17.616234   39.673298    0.684800
