100
TIME:    8.896, STEP:  8896
H   15.722095    6.216060   91.001480
H   54.790237   86.925095   39.026264
H   32.684971   13.917880   18.914780
H   82.969772   66.135246   52.543518
H   15.483355   85.810883   24.498035
H   90.065430   91.570396   59.747414
H   86.730583   62.039841   86.131950
H   20.678238   58.218021   91.392281
H   34.947212   30.978596   40.115772
H   31.778753   44.118382   56.035103
H   72.770782   24.191444   82.841423
H   16.304749   69.601143   59.701942
H   76.481216   23.524864   41.047310
H   14.604978   77.655922   34.229809
H   88.656807   75.398262   23.092461
H   43.834869   33.652367   94.594788
H    8.743609   70.370995   83.226326
H   91.299026   61.959587   91.147537
H   83.823914   51.552853   32.037403
H   52.840000   16.897551   22.013605
H   36.375465   70.593048   15.791937
H   15.248528   55.893555   61.701706
H   66.967781   22.276194   77.825058
H   92.491119   43.250214   46.380161
H   11.412910   80.663254    2.237854
H    5.661057   63.849411   53.729420
H   94.966728   72.682205   76.478928
H   81.922791   71.674911   60.829247
H    4.605622   56.206600   36.652611
H   42.104607   70.663376   90.595428
H   66.171303   19.777554    5.555870
H   27.456043    6.726557   75.716805
H   96.978531   17.608669   99.218887
H   53.979507   58.457367   96.977882
H   59.558876   86.117989   66.293884
H   45.951313   82.205017   91.458992
H   33.041435   78.743904    9.435300
H   96.304802   96.150063   50.206390
H   69.570671   87.589439   82.224106
H   25.290018   79.369942   37.953300
H   27.272528   61.423180   51.930386
H   50.507507   76.488831   34.117741
H   87.846161   16.852489   44.039822
H   11.305378   61.967621   50.537373
H   84.993530   80.909477   17.366205
H   63.292801   32.588390   19.302298
H   11.242154    8.632662   10.861137
H   56.730587   86.995911   19.011204
H   25.069641   95.684181   89.608765
H   12.510988   66.137321   61.525600
H   42.890751   10.791954   47.206055
H   37.475109   38.256123   90.068855
H   93.395058   73.590759   86.207047
H   70.677795   62.062492   24.371700
H   32.482613   38.207748   76.006805
H    4.675716    3.175995   89.785950
H   60.218307   32.856331    2.070995
H   63.641296   36.770119   84.413963
H   91.886589   14.656274   28.539312
H   71.973640   11.563642   10.587181
H   20.867102   64.864136   20.794308
H   83.181480   45.139359   92.838676
H   78.010742    0.235507   23.445038
H   53.913067   90.223297   85.612961
H   85.420883   50.335758   24.014631
H   54.853523    0.027210   72.185310
H   73.825638   55.918102   96.560287
H   65.858170   26.309566   91.482849
H    0.276094   10.576500    2.290138
H   10.698134   95.468277   82.975342
H   39.539310   90.115547   55.441170
H   40.703178   56.218163    8.119617
H   26.955948   78.277458   33.656429
H   34.373119   86.391884   74.583656
H   91.000916   41.414112   75.802383
H   35.964821   77.723747   97.341934
H   74.729324   55.829845   48.515640
H   49.924580   69.038567    5.741431
H   88.109138   27.388363   16.935724
H   63.257103   24.412302   54.522850
H   84.969368   21.315561   11.685065
H    8.845301    2.164532   42.764458
H   80.566277   55.890781   77.153496
H   62.178474   73.409157   50.904530
H   19.169815   92.422714   85.386292
H   46.551510   35.818390   59.548462
H   61.298573   56.540489   47.738838
H   99.101189   93.207680    3.340219
H   40.302982   98.857750   55.432991
H   79.813278   43.271561   42.226936
H   88.083641   53.787472   21.329369
H   36.512814   64.543610    3.033926
H   55.704227   94.438835    6.945918
H    7.029610   52.882923   26.641428
H    2.782942   52.880871   20.506617
H   28.694748   44.438171    7.958969
H   56.479576   78.202019   25.571526
H   21.105974   26.634869    0.292383
H   84.928215   75.217278   99.903282
H   91.776596   50.346882   40.760441
