200
TIME:    0.349, STEP:   349
H   12.820543   62.113247   17.203409
H   28.935806   34.469440   94.322144
H   15.853075   73.909065   50.717033
H   21.516741   78.247780   41.649372
H   14.052862   86.491837   52.091343
H   86.072632   49.856564   62.323025
H    4.938437   55.226791   51.761143
H    5.331256   93.593262   21.203293
H   91.855103   85.872124   45.060364
H    7.024195   73.372063   91.773064
H   15.992963   96.922676   96.406174
H   31.228531   44.932209   17.935917
H   13.849444   90.625359   56.824303
H   99.251541   53.666813   47.518215
H   14.359304   72.783676   42.710400
H   26.123245   21.475288   51.971645
H   89.335083   12.823507   10.139929
H   33.973812   88.406975   41.579819
H   68.652046   25.755747   44.088413
H   90.403030   78.207787   33.245342
H   59.393188   82.199440   20.846691
H   87.602409   52.980705   66.374260
H   91.741165   61.748940   46.520813
H   10.916972   89.052948   91.244293
H    7.984161   17.087847   41.520939
H   18.570864   67.173576    3.356535
H    1.006498   60.983875   53.464417
H   97.011749   74.625916    1.018078
H   15.659463   53.216621   37.700108
H   88.123833   23.684315   94.855408
H   13.219184   56.003117   16.328077
H   29.943924   66.061020   96.286713
H   24.489609   11.330974   74.510551
H   92.819054   63.696838   40.195503
H   42.757648   85.297043   33.389980
H   29.500744   47.436703   80.726379
H   89.392960   72.076393   86.773232
H   27.523375   47.574867   10.266592
H   49.036140   42.497482   46.854511
H   89.037422   39.240253   59.438568
H   80.536743    0.132067    5.142226
H   18.764696   40.821224   36.599110
H   74.739273   85.277969   54.375698
H   37.038437   68.527885   22.646687
H   32.501163   79.620735   48.297401
H   39.525898   11.001792   43.873329
H   82.028214   20.872036   98.569038
H   87.462173   65.548943   43.729141
H   91.295769   24.615765   61.244919
H   58.216759   18.293398    1.100920
H   75.615295   69.116486   23.548965
H   16.971365   37.574078   65.885185
H   55.116070   91.302887    9.354220
H   20.784342   84.483917   83.317307
H   72.585159   73.960808   87.248184
H    3.908352   69.664810   82.217468
H    5.119412   17.157936   48.485355
H   68.599533   61.113293    3.336125
H   25.881153   76.583084    9.762774
H   40.582283   95.377113   64.979256
H   50.066502   13.249786   39.051876
H   91.895119   16.683096   49.901527
H   74.450233   27.464481   81.207565
H   26.767004   65.307846    6.101141
H   73.100563   77.704025   22.386791
H   34.464008   20.795860   34.822556
H   82.103615   20.862810   88.087105
H   96.731026   91.697746   89.429565
H   20.399632    7.326226   60.600174
H   44.609520   43.529785   50.976772
H   58.417347   78.477379   76.196945
H   29.077078   20.956749   44.001831
H   80.953262   27.547512   95.845848
H   11.416416    6.568810   63.745613
H   80.472275    2.636036   62.487541
H   56.068863   15.228376   62.165203
H   94.966873   34.008007   70.603783
H   22.518011    7.954769   44.240288
H   12.359253   34.549675   32.524311
H   66.633675   90.059044   89.092377
H   47.994312   28.259838   99.515579
H   31.429201   66.630157   84.487572
H   10.574451   14.861939   87.090515
H   21.119583   65.423851   97.404144
H   35.026707    0.476469   54.693203
H   27.738119   81.960587   25.513790
H   40.740475    3.011241    2.021209
H   74.425041   14.487533   15.553432
H   69.021927   72.321770   77.562981
H   22.898182   90.932831   53.666332
H   36.673573   35.833755   80.269661
H   83.296173   89.491806    0.746219
H   52.437675   15.632780   92.625450
H   55.140114   90.517624   72.097610
H   27.886866   55.451767   72.479507
H   64.758125   30.146313   23.936714
H   80.784187   10.509096    3.023584
H    3.898216   30.132479   49.625591
H   34.548042   68.686134   53.267529
H   69.099655   99.698700   27.277018
H   14.729364   83.440125   74.072456
H   94.625542   78.305641   65.263351
H   25.438864   33.186569   32.026131
H   27.113552   68.140732   94.490868
H   25.194248   26.040295   28.621437
H   91.738297   21.436272   38.787632
H   70.821732   31.450216   55.751953
H   64.109200   38.459423   14.526792
H   75.566635   38.713764    4.403294
H    7.868202   26.540632    6.070738
H   48.628643   95.119583    0.872540
H   90.370689   66.086365   91.752747
H   55.200893   81.539528   91.564468
H   62.854942   17.047441   72.143158
H   60.212822   86.507462   22.950815
H    9.590139    2.608538   83.851662
H   28.093426    9.977539   85.450790
H   40.218098   32.361572   31.799706
H   23.001858   61.805935   78.152527
H   73.659149   48.850338   53.408886
H   41.692207   22.483761   83.948090
H   13.585960   24.897900   51.394413
H   34.864265   17.225460   27.262634
H    2.471355   63.396214   13.091941
H   73.654823    6.253299   89.208130
H   51.715710   65.334793   23.426804
H   92.677269   49.698868   66.845184
H   73.044464   88.424858   35.923161
H   93.809097   48.538124   82.406265
H   73.028374   23.632711   68.358582
H   53.008972   81.293793    7.576847
H   77.516205   87.132462   11.897473
H   92.081825   87.897873   98.185966
H   95.575844   15.797666   51.048885
H    9.810789   99.399246   51.408134
H   59.454948    1.486959   82.075775
H   69.073174   86.842278   60.764877
H   92.148079   60.817612   81.476120
H   49.162308   45.857964   71.524307
H   43.506989    3.862156   92.428787
H   56.013935   59.863247   18.430923
H   52.220398   44.322689   48.787857
H   51.501537   58.767235   95.707726
H   52.718468   22.582003   79.930672
H   45.425449   66.152092   52.632801
H   49.933910   63.853909   24.625774
H   47.309227   96.300453   46.501434
H   39.676132   69.361298   68.199608
H   68.099213   60.241398   96.860878
H   12.936526   89.864822   85.917915
H   72.378212   63.161098   50.521324
H   38.375744    4.093734   44.736515
H   81.239388   27.762897   99.638039
H   12.791295    3.644678   73.258957
H   17.934799   56.757637   62.725361
H   66.737869   43.799175   57.414402
H   60.452221   64.152229   82.046432
H   47.595760   34.911034   12.277781
H    7.393108    1.323623   98.562683
H   62.457634   52.496399   82.424042
H   55.026638   79.981094   80.517746
H   38.486416   22.491434   34.599689
H   69.911263   29.817648   37.186729
H   15.275630   23.381752   66.535156
H   57.910522   25.786921   10.895547
H   13.791665   60.971092   61.705978
H   73.022903   95.803963   53.377213
H   23.727432   35.891834   52.520008
H   95.554047   27.815739   36.599552
H   31.447193    9.637154   89.175903
H   77.282654    6.930082   35.966927
H   42.397438   61.398594   57.792835
H   39.778980   72.770645   87.357071
H   69.883781   71.931381   76.768723
H   66.371735   94.216583   94.106247
H    4.272693   48.249626   23.391319
H   34.297989   56.326153   91.467651
H    2.696040    9.304810   66.273972
H   72.814034   18.845667   67.859993
H   81.115479   55.624336   87.922638
H   79.427788   89.095459   39.184986
H   21.426220   30.239101   73.595390
H   60.616966   90.052658    8.227361
H   53.854450   25.422150   81.200279
H   86.932533   83.606712   77.947769
H    1.542313   37.143524   84.499733
H   35.147430    2.657479    1.680288
H   85.184441   71.841621   29.340490
H    3.461817   61.659477   67.789154
H   51.595699   57.680378   67.080154
H   53.027359   27.418095   78.523079
H   46.759357   87.891373   23.236025
H    6.521634   20.117174   60.303104
H   33.199192   67.881248   35.509964
H   81.154053   49.386711   21.459734
H   75.594254   10.650910   28.073019
H   10.185815   88.531563    7.145795
H   25.741703   95.239853   43.892689
H   10.459770   11.916885   73.142204
H    6.870882   31.299963   96.234444
