100
TIME:    2.194, STEP:  2194
H   68.951080   20.820236   97.137344
H   40.240181   23.699553   16.396749
H   17.467703   31.748623   97.581154
H   81.844864   42.258018   19.902168
H   75.519592   48.616291    6.216951
H   93.995613   98.831169   96.024620
H   37.982891    9.486237   62.026512
H   47.442223   78.410461    6.747561
H   99.695229   75.349197   61.983906
H   14.884295   47.885948   93.603416
H   96.174500   54.522816   28.412619
H   72.103088   33.664383   36.757240
H    3.702678   28.967491    7.063597
H   46.447319   98.313332   24.204273
H    7.186778   74.050385   45.309273
H   13.308483   19.833992   50.920670
H   47.673126   27.089729   73.111511
H   48.029419   88.006294   23.483727
H   79.435936   70.395889   78.950409
H   33.408188   59.219845   65.710365
H   34.081558   37.797977   97.695526
H   72.721268   46.996552   32.438889
H   56.450966   76.778557   69.577225
H   15.195183   62.995304   44.129028
H   51.113518   12.170280   52.749603
H   36.598911   62.232159   83.528206
H   72.888466   51.276302   43.503880
H   47.418205   58.848217   39.293728
H   58.877243   48.148628   53.460411
H   85.121468   36.538681   57.805172
H    2.407760   18.793165   35.800510
H    4.287750   91.895317   96.154518
H   24.899681    7.959132   95.449799
H   70.802849   72.655777   79.321640
H   26.235634   93.070435   58.326416
H   63.314342   56.835293   13.097665
H   90.232208   24.187517   81.343994
H   73.307823   18.797649   77.265419
H   52.464890   33.611816   31.696920
H   56.542454    6.787900   10.653124
H   85.305534   31.465231   94.034225
H   34.436981   10.324735    5.877717
H   30.139044   76.656708   59.947227
H   39.256996   49.542885   95.251877
H   66.341301   45.325832   43.857887
H   49.781933    4.763966   92.078896
H   58.870289   44.155304   46.516502
H   56.356586   17.972635    4.330218
H   29.162886   50.741604   56.956276
H   71.902122   64.143410   30.213367
H   43.377232   57.827080   76.550034
H   11.757315   60.153156   30.029911
H   54.391861   34.730286   75.446465
H   25.885540   71.412117   28.630938
H   66.096985   50.843273   19.023146
H   96.311417   10.226160   17.937866
H   35.341625   26.240303   64.655098
H   62.687103   69.691330   57.043533
H   63.311752   31.471247   43.048912
H   14.238096   96.425262    1.207946
H   98.099442   76.539864   43.333805
H   21.042988    7.522173   96.081879
H   23.050076   57.539070   83.041183
H   93.697205   53.729309   67.576454
H   19.404984   85.613037   99.883759
H   66.564369   33.202705   75.911751
H   11.539660   24.215620   72.988480
H   28.811333   43.014832   71.088486
H   66.252617   92.139488   22.628212
H   74.832825   58.496307   97.113190
H   52.363380   46.120155   35.833080
H   93.062073   78.710419   17.255697
H   63.938782    9.783215    5.490330
H   81.906853   10.538354   72.812614
H   67.951561   31.765501   67.718002
H   77.527092   48.188049   48.300694
H   66.156891   36.385490   29.851652
H   35.058437    7.259924   35.606625
H   66.721100   47.074261   42.156631
H   91.927376   89.464172   31.906044
H   53.816998   51.979595   11.119236
H    5.940838   58.556046    3.316153
H   56.617352   43.877380   38.867466
H    1.096665   99.905006   63.032196
H   45.500244   11.647465   35.068665
H    0.793142   89.643867   94.141151
H   13.687033   43.831253   28.161802
H   91.274231   29.637451   72.931343
H    1.213252   72.013847   10.249983
H   72.360062   19.007507    2.649128
H   13.810181   91.901474   79.794998
H   40.622456   60.513615   75.326744
H   26.054893   93.373032   88.648758
H   59.287083   46.315487   74.747932
H   18.658375   53.205193   66.502495
H   75.136978    9.093060   54.126038
H   88.453201   93.589821   11.010485
H   14.920756   34.918274   20.930969
H    4.196388   46.307766   61.268456
H   75.496140   22.348278   86.371979
