100
TIME:    1.956, STEP:  1956
H   85.046295   42.646103   97.355240
H   46.860573   10.795599    1.384174
H   13.376715   14.626575    0.374028
H   81.804916   52.063316   32.947819
H   77.651337   29.539539   12.669836
H   97.685310   99.089012   72.455589
H   50.455593   93.415535   43.414604
H   66.148552   57.819881   28.600471
H    5.545784   98.231857   76.964470
H   21.387568   44.468620   84.284752
H   18.312668   44.946308   51.337185
H   81.185699   21.734606   53.698616
H   18.841572   43.366753   30.718716
H   58.231834   99.046913    6.091709
H    4.291718   95.309723   56.750603
H   22.878635   40.650276   70.676529
H   66.807983   11.350410   51.442856
H   42.943375   99.580177   31.735611
H   75.728081   60.411987   66.410522
H   39.819763   64.273300   49.506203
H   48.204819   61.492298    4.155525
H   49.901920   46.681633   52.705811
H   59.628609   78.714195   76.386459
H   37.307945   60.140873   61.805801
H   59.625969   31.045479   50.993729
H   37.690205   69.324203    5.836757
H   93.410591   61.170574   38.780994
H   67.499405   47.739178   31.426802
H   53.702225   26.555414   64.711082
H   75.995277   42.429123   38.884579
H   93.045235   97.449524   54.632130
H   89.260315   98.472130   18.187325
H    8.135132   25.371708   74.008881
H   60.746971   94.467117   89.348465
H   32.152382   11.061620   43.834549
H   42.621532   38.138042   13.915681
H   67.404022   32.904152   62.590458
H   83.145805   23.153744   60.469692
H   62.787865   38.753166   54.654434
H   78.959663   29.068811   91.928116
H    1.571259   23.298689   88.427048
H   55.827057   99.642738   94.696365
H   28.089010   75.229492   42.757088
H   54.455208   45.553581   71.980637
H   86.986900   54.715313   23.490507
H   52.852444    0.224493   91.112892
H   56.733631   31.256052   44.337105
H   56.343876   15.522219   89.604149
H   22.206572   70.452660   66.450607
H   66.912315   60.520969   46.858768
H   43.395390   80.804161   74.040604
H    0.191601   82.237183   45.654835
H   49.454712   33.350281   89.268303
H   31.396481   75.294289   18.129282
H   85.042999   29.978052   17.003981
H   96.013626   10.476286   26.039948
H   20.254175   33.107643   42.019386
H   80.409271   92.167252   63.173660
H   44.541870   21.414461   61.321266
H   29.942966   78.132935    7.976819
H   83.086441   87.608955   61.889423
H   29.489162    9.737898    6.850559
H    6.906487   73.768654   99.368820
H   77.355042   52.434647   74.037056
H    9.958304    4.621068   77.720154
H   81.185158   45.034431   61.839336
H   30.635477   15.987342   61.498119
H   45.251549   29.403454   59.710712
H   54.390366    9.240631   37.555870
H   70.010071   46.524765   97.614349
H   59.920723   62.314423   38.688297
H   12.686320   86.609131   99.830345
H   79.456573   21.555019   11.593220
H   87.143608   25.599638   86.957664
H   56.476921   31.426855   49.676250
H   71.901756   32.933548   64.314232
H   44.547287   57.014748   25.641729
H   23.876766   22.822214   22.462078
H   55.310425   47.772312   39.501122
H    3.599380    2.425506   52.410011
H   49.159481   49.517376   96.894676
H   88.083847   57.001724   23.218180
H   41.558956   39.904419   16.199070
H   84.725349   79.539040   84.770905
H   57.088654   26.535042   58.140167
H    6.271171   80.902626   77.613777
H   97.791527   61.135788   16.813078
H   87.442902   48.692413   75.408089
H   96.274117   85.265526   12.196970
H   93.401505   28.800095   94.140694
H    4.070159   79.049271   74.768875
H   23.011515   42.615314   70.790886
H   10.784958   86.240585   70.236588
H   36.282764   31.878103   58.700531
H   22.773876   74.523560   61.033318
H   55.479172   18.491045   66.418976
H    7.344560   79.931404   24.698120
H   14.046905   32.891846   24.739601
H   15.533764   45.281841   81.205643
H   60.715561   28.461155    9.294834
