100
TIME:    8.572, STEP:  8572
H   37.632317   35.927696   91.298111
H   63.738602   69.369492   18.596626
H   27.115725   90.608353   22.717834
H   82.915390   79.483635   70.303413
H   18.386629   59.840855   33.282196
H   95.088379   91.921410   27.659538
H    3.712363   40.160843   60.794727
H   46.143997   30.188875   21.140839
H   42.911751   62.129822   60.511616
H   40.628273   39.466221   43.349190
H    2.908468   11.155524   14.051435
H   28.671783   53.360607   82.764992
H   97.141556   43.134636   73.244827
H   30.646582   78.654579    9.572369
H   84.721504    4.339523   38.672997
H   56.861908   61.990501   21.490025
H   34.797859   48.941151   53.731331
H   84.369553   77.725517    2.379611
H   78.776245   37.959743   14.968768
H   61.568363   23.778151   99.954262
H   55.602089    2.846918   24.585806
H   84.186333   55.463440   89.293320
H   71.293648   24.910028   87.094772
H   22.595160   39.374237   70.443680
H   23.000298    6.357048   99.846107
H    7.189323   73.400925   84.218964
H   22.905439   86.149246   70.051926
H    9.261637   56.551685   50.118401
H   97.560356   26.810701   51.968651
H   29.680946   78.682297   64.837982
H   53.419071   90.723671   31.189720
H    6.998660   15.677967    5.711076
H   74.157730   41.313667   70.030411
H   40.289993   88.150116   10.627028
H   67.622292   10.649284   46.580578
H   17.786837   56.827545   92.477425
H    1.965748   90.609138   83.905479
H    9.696375    2.078439   27.343567
H   83.245354   94.649254   13.621964
H   55.806190    9.701037   12.461297
H   49.415756   50.306938   44.297085
H   77.812378   75.218262   17.577019
H   85.057831   14.908669   20.638119
H   31.992908   56.526917   18.859669
H   13.098640   93.689323   89.640068
H   67.474876   26.409698   17.985998
H    8.709050   91.012154    7.749628
H   56.710812   83.658813   98.964363
H   15.599701   22.517380    2.532320
H    5.710108   61.204762   84.178581
H   42.912998   42.072517   43.789856
H   21.728148   68.321777   11.337710
H   86.676369   71.712097    5.023657
H   78.182556   67.348373   10.075328
H   58.279610    9.813592   73.253082
H    4.272175    3.516811    0.815681
H   39.679092   42.205147   71.255959
H   87.767273   67.367592   92.759178
H   66.331841    0.965366   53.414108
H   93.355782   86.660416   19.802513
H    0.428464   79.932983   46.054897
H   94.680870   48.155106    7.498100
H   56.014668   22.345194   45.662689
H   31.663300   88.458344   94.408066
H   72.561935   76.213165   93.841599
H   74.757454   16.133659   53.027897
H   99.820389   44.717815   80.917953
H   88.238968    7.778794   75.993774
H   84.129456   33.857079   22.611420
H    4.117691   79.193130   83.662537
H   49.829929   12.161101   59.327034
H   67.382965   66.975975   84.369919
H   48.081009   94.305412   41.964565
H   41.504620    6.898454   93.834999
H   75.393188   40.937031   51.236408
H   28.304331   56.958748   19.142855
H   45.303543   83.872070   42.768417
H   34.704945   90.222954   87.845398
H   72.570625   28.340054   13.319757
H   79.146629   42.062370   82.435814
H   78.626411   17.963633   92.319672
H   84.532028    0.061233   69.869637
H   60.073555   50.472324   46.297527
H   39.889137   45.684059   80.497307
H   34.945633   12.691301   16.794201
H   54.009304   23.916916   37.049011
H   39.659351   80.097923   32.289314
H   93.890373   19.133846    6.699603
H   33.579350   16.897207   58.082893
H    8.458461   56.602646   30.645830
H   74.824242   36.293667   14.487082
H   12.540094   40.175385   96.860191
H   34.935123   84.719231   81.890503
H   75.715622   33.226185    4.795485
H    8.385269   81.902206   13.062174
H    1.933630   57.232849   24.694191
H   82.197472   59.608208   44.205315
H   21.731371   10.603208    6.797251
H    0.362899   73.818169   27.042507
H   71.650192   58.659962   71.972794
