100
TIME:    3.542, STEP:  3542
H   77.791412   97.201965   95.903214
H    2.742443   96.785751    1.428324
H   40.638512   28.729229   81.763710
H   82.071121   86.719170   46.014523
H   63.445679   56.664425   69.666550
H   73.097664   97.370781   29.521879
H   67.332542    0.509407   67.441948
H   41.492081   95.030472   82.979393
H   66.558815   45.744583   77.131355
H   78.047569   67.241234   46.391953
H   70.786819    8.762600   98.566444
H   20.651733    1.233005   40.805199
H   17.956120   47.411530   73.082420
H   79.702019   94.158424   26.787762
H   23.585228   53.641464   80.512245
H   59.108459    1.932707   39.024757
H   39.280647   16.247166   95.830582
H   76.831505   22.453377   76.748718
H    0.436601   26.944376   49.967518
H   97.093071   30.598040   57.488457
H   54.089417    3.599383   61.104362
H    1.955338   48.786041   17.644226
H   38.453224   65.815361   31.010502
H   89.951302   79.162415   44.014187
H    2.902560    5.260231   62.698280
H   30.416655   22.070211   57.178513
H   56.648991   95.239700   70.251259
H   33.678425   21.768280   83.851555
H   88.187851   70.449966   89.740578
H   36.808548    3.175021   64.967407
H   55.456722   39.673496   29.147179
H   89.401344   54.647720   71.363380
H   19.850836    9.333008   16.888288
H   27.759781   49.119545   22.531910
H   92.725937   91.171959   40.410927
H   80.521080   62.729031    8.460515
H   19.523232   74.819809   87.561150
H   17.595383   94.128151   72.389748
H   95.562561    4.244364    1.066516
H   29.576954   80.593369   16.711058
H   93.181625   77.717392   25.793684
H   13.286400   70.826599   69.207443
H   41.750156   84.740265   57.315090
H   53.178162   72.134064   27.052252
H   49.412914   92.142822   59.209408
H   32.390972   30.475025   97.550209
H   69.406540   17.463787   59.464592
H   56.428577   31.851465   87.736839
H   68.563705   39.100800    3.181177
H    0.163772   84.650551   35.932049
H   43.274387   27.686565   90.763107
H   77.267502   35.067902   41.536716
H   82.348457   42.546448   97.155098
H   94.670555   49.417198   88.115753
H   58.774063   68.997009   30.472994
H   97.998062    8.808615   72.048767
H   20.799707   87.343620   92.861031
H   62.311516   42.389679   22.321884
H   69.625893   88.426437   39.561924
H   25.283638    0.036896   62.867683
H   83.132515   13.853421   38.233372
H   73.202110   94.973648   35.090370
H   14.526254   65.583427   90.584892
H   86.262444   61.062103   30.975193
H   72.911919   77.950813   25.420404
H   83.754585   66.189522   55.614487
H    3.386819   70.816711   38.070721
H   35.695717   20.108110   35.530682
H   33.435097   95.280807   38.084805
H    2.147804   26.294516   94.274689
H    9.557299   54.402290   19.659607
H   81.912766   33.973175   15.949981
H   76.046310   43.103741   70.933098
H   52.240475   25.234241   92.700951
H   32.945965   33.688061   69.905556
H    9.390756   34.581421   57.596828
H   88.545631   19.549263   53.691410
H   98.389923   19.117426   10.050348
H   31.364515   43.114758   57.202744
H   25.819099   16.048355   15.774618
H   80.190231   65.925278   91.686234
H    7.084073   67.359512   90.597290
H   41.901272   66.379700   67.257904
H   93.834305   15.255442   39.909607
H   79.863052   27.330181    4.395302
H   69.775085   39.157936   87.750336
H    3.716907   45.820671   92.439453
H   12.971292   21.713074   58.907127
H   29.190998   96.959801   99.221809
H   53.178753   63.550285   50.834198
H   68.975830   64.687737    8.262368
H   40.366127   61.883141    1.017102
H   12.503444   33.794769   92.912743
H   89.575325   28.080738   65.636131
H   95.350166   32.458920   97.479179
H   86.476242   55.861336   84.499901
H   81.455231   70.948753   33.486229
H   19.868124   46.395691   99.361122
H   39.980614   52.118465   48.357849
H   59.216846   87.740181   56.528381
