100
TIME:    8.633, STEP:  8633
H   33.507072   30.333742   91.242264
H   62.053879   72.674713   22.442867
H   28.164255   94.997009   22.001827
H   82.925629   76.970512   66.960030
H   17.840025   64.730270   31.628242
H   94.142700   91.855324   33.700638
H    0.515404   44.280037   65.565010
H   41.349518   35.465969   15.539844
H   41.412254   56.264938   56.671658
H   38.962166   40.342091   45.737587
H   97.234406   13.609891    8.175615
H   26.343422   56.418240   78.422874
H   93.251801   39.442673   67.182617
H   27.626413   78.466560   14.214664
H   85.462410   98.890724   35.739624
H   54.409286   56.655235   16.426315
H   29.892616   52.975643   59.284401
H   85.673584   74.757240    0.265173
H   79.726578   40.518940   18.182308
H   59.925060   22.482729    4.107379
H   51.982262   96.774261   22.930170
H   90.034462   55.544418   84.098602
H   70.479210   24.414152   85.349548
H   16.927370   40.103973   65.913544
H   20.818768    1.519287    0.296465
H    6.901594   71.602646   78.478806
H   17.645334   83.613785   71.261948
H    4.114738   59.398960   52.134949
H   98.886726   32.344936   49.085075
H   32.019783   77.172562   69.687378
H   55.820034   96.193901   26.363594
H   10.850151   13.992662    0.064049
H   78.454239   36.850548   75.525772
H   42.867340   82.559814    8.057360
H   66.104179    6.030749   50.292088
H   23.089293   61.605736   92.285683
H    7.816379   88.375252   88.712059
H    7.175224    0.962049   31.647987
H   80.670799   93.320091    7.710773
H   50.060913    3.990315   17.260664
H   45.246765   52.399811   45.734219
H   72.671646   75.457474   20.691196
H   85.582794   15.274584   25.043995
H   28.098034   57.551247   24.823681
H    7.807356   91.283241   94.859917
H   66.687431   27.572948   18.233820
H    9.185962   94.329475    8.335417
H   56.714535   84.287094    2.738638
H   17.382622   17.465538    0.098923
H    6.990520   62.133221   79.913719
H   42.908810   36.183434   44.433029
H   24.692934   62.661556    7.333342
H   87.941307   72.065796    1.480852
H   76.769623   66.353363   12.766929
H   53.422768   15.159446   73.771530
H    4.348150    3.452645   98.739090
H   43.546043   40.445030   77.057549
H   83.225037   61.606956   91.188011
H   71.143074    3.543003   48.730858
H   89.330132   91.348785   18.067528
H    4.276456   77.095947   41.299046
H   92.515862   47.587326    4.737970
H   60.156200   18.182486   41.479736
H   35.852283   88.790634   92.752197
H   74.982910   71.341431   99.522186
H   71.010109   13.101270   56.634693
H   94.926315   46.826511   83.862961
H   84.025299   11.267610   78.909927
H   87.169403   29.474007   18.785423
H    5.356626   82.257278   83.533157
H   47.892498    8.010377   58.595436
H   62.359665   64.950584   88.841415
H   44.103760   91.287804   40.400379
H   40.161961    3.037844   90.210518
H   78.331680   41.026852   55.861485
H   29.746584   60.868515   15.038348
H   50.843582   78.592651   43.850456
H   37.570370   86.234535   91.214844
H   75.496086   28.160877   14.000511
H   76.155083   38.739464   77.180595
H   79.820610   18.594706   95.965561
H   89.109634    0.457225   64.766136
H   63.932129   51.492466   52.107029
H   44.085587   50.903908   74.925621
H   31.975494    8.875427   10.881048
H   52.605213   26.157551   41.285019
H   43.733402   75.662727   35.198021
H   94.871422   14.252571    6.067075
H   34.845219   13.500916   57.583992
H    3.065142   54.092781   32.826340
H   77.320610   39.587254   15.775290
H   17.053476   44.763229   98.022743
H   38.845356   86.549156   86.607727
H   81.611221   36.926991    8.908512
H    7.330493   76.438492   14.463821
H    6.972033   54.823975   21.543480
H   77.355522   63.108894   40.697182
H   21.613626   13.621514    5.572569
H   97.456993   74.081581   21.932957
H   75.439423   57.094845   66.096741
