100
TIME:    6.431, STEP:  6431
H   82.420242   32.266624   93.258255
H   22.866657   53.351551   83.600929
H   90.309280   36.575371   47.853664
H   82.556030   67.693085   87.657837
H   37.569168   88.230438   91.335129
H   28.292133   94.240913   15.629395
H   15.921931   95.588829   93.365654
H   14.422379   44.964664   17.720310
H   95.541618   67.978943   95.277855
H   99.105904    8.723660   59.517399
H    2.059077   25.007574   20.283371
H   10.386230   46.043324   35.162941
H   33.691360   72.695107   86.005058
H   36.655724   85.253731   46.642658
H   58.716927   95.584221   41.635426
H   42.947800   49.250282   99.211426
H    6.964314    7.332319   58.827644
H   38.591122   81.906693   76.592812
H   45.430225   48.142868    2.173398
H   19.255798   69.240517   54.184990
H   82.652069   15.990582   82.694038
H   78.926575   52.621231   71.619232
H   99.879082   42.319313   48.352478
H   21.524994   13.761690   29.451109
H   99.575630   76.149902   84.034279
H   17.230196   36.543221   85.674736
H    7.526192   75.149185   27.568136
H   89.912796   56.617043   79.348404
H   51.006935   32.562267   53.174988
H   47.585789   31.672752   94.635056
H   69.157555   98.736275    0.578752
H   71.814545   74.828323    3.914174
H   23.347755   97.960274   77.152222
H   49.827171   84.360001    0.824324
H   20.906479   72.753120   16.317598
H   31.673090   89.131981   99.207253
H   96.615883   69.018188   15.202815
H   98.188622   41.263584   76.258781
H   73.618988   41.295097   21.100519
H   57.464382   10.134268   44.012386
H   95.738831   76.845207   93.857277
H   58.244339   66.822311    8.274308
H   66.632477    2.065488   65.990837
H   68.701385   20.586874    9.525222
H   98.814491   78.156754    6.428005
H   95.112907   85.578323    9.287859
H   91.976852   74.577469   87.196175
H   56.582867   61.607193   66.491760
H   53.012459   99.835426   87.938828
H   60.760212   28.616518   33.876099
H   43.060009   48.772171   21.219433
H   17.669487   66.991516   51.881111
H   42.271114   59.297852   29.365854
H   27.765045    2.272418   15.598662
H   28.749531   22.186768   55.048382
H    1.605562    5.768935   73.700378
H    3.950300    3.982551   67.629051
H   47.189850   69.558891   47.908188
H   97.476883   10.495202   17.775154
H   34.639015   22.095890   80.697655
H   65.373070   79.499771   12.985228
H   70.669167   68.083237    4.370318
H   10.660604   68.443153   92.477478
H   84.645187   76.795486   52.540249
H   87.580276   47.211300   94.459663
H    6.280796   22.568871   26.434752
H   71.597244   70.696716   77.550613
H   36.132713   85.332680   73.641586
H   77.422981   87.695694   56.892780
H   60.673088   71.603935   88.191284
H   17.819042   57.835999   85.004921
H   43.701542   38.092728   27.469154
H   87.677612    0.204308   96.855286
H   88.638283   42.401066   21.045191
H   72.234123   37.809788   88.911148
H   77.691856   19.739136   63.203369
H   50.855068   69.182152    4.796304
H   34.120403   30.212568   69.601067
H   69.901405   34.628849   89.431801
H   84.143021   58.692757   66.884789
H   36.717300   95.813309   64.354813
H   23.874403   86.176819   48.986591
H   24.649925   14.667180   42.399696
H   92.592293   62.473778   76.044151
H   39.193336   46.623085   24.338943
H    3.278528   45.276093   88.371262
H   96.666664   35.766701   30.198355
H   59.457176   90.458679   28.898354
H   89.143906   36.103920   75.593513
H   97.751450   44.688114   54.108238
H   87.205650   20.687748   69.272751
H   54.127773   79.152161   56.059708
H   97.693100   20.480778   16.323679
H   68.797646    3.334462   60.431442
H   45.404533   73.680374   63.863651
H   25.095856   41.777924   35.279572
H   52.139641   36.741440   67.336624
H   25.864008    4.665474   49.778198
H    2.355200   64.572823    6.372765
H   38.664921   13.605431   78.222206
