200
TIME:    0.478, STEP:   478
H   16.784475   61.685123   19.409229
H   30.085588   36.352692   99.559029
H   13.149377   79.555374   57.070976
H   25.865147   79.755562   38.276054
H   12.683236   89.761322   50.236633
H   81.876038   46.355301   58.504852
H    6.807418   55.135262   54.258038
H    8.222074   99.163788   16.624340
H   97.093956   83.938187   41.913410
H    2.483184   71.565086   86.684792
H   20.489244   99.678413    0.482695
H   31.761963   48.375404   24.082441
H   17.015591   94.906593   51.537224
H   93.154472   54.211071   53.734371
H    8.131215   73.776726   42.392998
H   22.363140   16.160160   49.188843
H   95.403610   18.865215    3.876778
H   30.910603   94.608368   39.283207
H   72.944107   21.085510   45.987411
H   90.813438   76.436241   28.244663
H   60.941322   88.639008   14.936642
H   84.730537   57.911507   61.403107
H   87.878212   60.811005   43.425529
H   13.649335   90.229057   90.839790
H   13.591226   22.276014   36.917873
H   18.464079   72.898621   99.095970
H    3.504710   63.572300   58.651108
H   99.972198   79.947441    1.357516
H   21.092693   49.295601   36.944740
H   82.294464   27.140059   90.393082
H   13.050764   61.392551   16.485794
H   27.598103   69.084457   99.462700
H   21.372673   14.106764   76.086243
H   88.549629   63.837578   42.450287
H   36.567081   79.966660   32.408741
H   25.286926   44.495445   82.205620
H   93.095490   69.292114   87.741676
H   21.142612   50.911770    4.466503
H   44.261826   37.878178   49.721954
H   87.800293   38.709774   54.399506
H   80.575127   94.105865    9.424035
H   25.185564   38.116173   32.774048
H   72.416580   82.314568   59.165760
H   36.751053   74.793251   27.260332
H   36.908867   83.556519   52.952629
H   37.710556    7.644590   45.276295
H   84.459167   14.552019    1.397388
H   84.321617   65.546974   39.091629
H   96.284637   19.720394   61.337925
H   53.600407   18.875547   95.643509
H   72.546585   67.483711   18.436581
H   12.040171   39.794415   68.658638
H   58.595207   87.612862   11.040619
H   18.864429   87.206192   85.227623
H   67.124863   71.091888   83.076195
H    2.254663   66.486855   86.441620
H    4.751263   17.646095   47.101582
H   70.008896   64.112122    1.007828
H   23.159124   79.075058   12.882785
H   37.598705   94.652748   62.594559
H   49.648712   10.732962   35.282913
H   94.213554   16.988688   50.890404
H   78.004150   30.136808   76.855469
H   29.892551   65.491890    8.981339
H   75.174255   79.627136   27.661814
H   29.403658   25.807611   37.141312
H   77.285011   18.141766   90.752296
H   96.008629   91.991035   91.983543
H   24.988180    9.069476   58.967400
H   43.866947   45.778172   50.969883
H   58.360756   80.708542   79.647522
H   25.451561   17.565962   43.098835
H   85.047501   29.777691   91.526230
H   15.619039    3.733291   67.501259
H   82.043045    4.724246   56.421967
H   59.329491   10.674151   61.322243
H   94.421631   38.810371   68.779091
H   17.740005   10.303789   39.829140
H   13.340000   40.296864   29.667202
H   64.689896   89.339600   82.974640
H   53.469372   26.079607   97.600342
H   37.101566   64.310417   80.499626
H   10.071160   16.276960   83.316139
H   16.912901   69.642097    1.608548
H   30.432991    1.840592   51.037422
H   31.372494   77.447083   22.828423
H   46.522110    3.280048    2.316958
H   73.352272    9.686275   20.419029
H   72.970352   72.636536   78.027954
H   22.252060   96.714958   52.247128
H   31.265965   36.947369   79.695877
H   82.397606   90.623627    3.560953
H   58.565746   14.177898   88.951462
H   49.355526   85.883064   75.639717
H   31.155613   53.706795   77.852211
H   59.415932   33.030487   17.871386
H   82.534081    6.047235    8.579273
H    0.351928   32.137016   50.846973
H   31.624992   67.393890   53.724686
H   71.342628    1.794757   27.308512
H   20.484892   87.006836   80.146889
H   99.422493   80.257294   64.551781
H   28.112913   28.472105   33.828678
H   33.312187   68.378906   99.613586
H   25.023245   24.345024   32.803761
H   96.845268   15.120466   32.748138
H   76.932579   33.051991   55.151596
H   63.348980   43.412369    9.538538
H   78.844978   37.085419   10.641102
H   12.012141   24.742022    6.702097
H   50.325882   93.998589    0.963301
H   95.550491   69.330261   93.222145
H   52.960381   83.036484   88.758537
H   62.417961   14.266361   68.816589
H   55.907967   91.879181   18.427715
H    4.325574   98.834816   89.671188
H   22.789616   11.793988   86.954636
H   39.563610   38.711086   29.221123
H   27.900919   66.649139   71.776932
H   77.063469   51.424984   58.221092
H   43.038582   23.340992   79.720985
H    8.019863   21.841984   55.188965
H   37.974312   11.784752   31.089418
H    0.570737   58.754272    7.442809
H   69.794823    3.059298   84.941658
H   56.441799   68.864105   20.936060
H   89.470772   50.301193   61.863205
H   70.222786   89.436607   37.012661
H   95.396599   43.868626   79.466484
H   79.280945   23.021282   70.556282
H   58.216331   76.687775   12.506664
H   72.564735   88.411911   14.939610
H   91.660591   94.174065   99.145554
H   89.250443   19.105122   52.636562
H   16.183552   97.066711   45.480347
H   56.019135    1.321399   80.175301
H   69.286743   87.170998   67.186729
H   93.248405   56.789806   79.437859
H   52.534149   47.661987   71.493797
H   43.576866   97.675285   88.844360
H   62.400356   56.069679   22.597992
H   46.281784   48.242233   51.795055
H   47.354645   61.141598   91.356613
H   46.807411   17.912504   82.068336
H   51.489056   61.873810   56.851048
H   54.660492   66.076248   18.447510
H   50.360222   95.735527   45.577770
H   36.153709   64.559425   67.459496
H   71.547821   54.855408   95.578476
H   17.048634   91.273201   81.090454
H   67.831245   65.351913   49.547466
H   43.806023    0.524347   40.693947
H   87.232132   22.939373   95.109772
H   16.201389    6.605681   70.071159
H   23.050137   60.164417   65.059151
H   70.567360   44.119038   61.383156
H   61.802532   68.021088   83.573898
H   49.429802   32.841278   15.299988
H    1.489004    0.837558   93.778526
H   61.011364   47.232941   87.374527
H   56.293785   74.740273   77.087837
H   32.429699   21.822922   33.482140
H   75.464073   24.193237   37.133091
H   20.010805   27.171383   61.016075
H   56.675362   30.164114   12.163063
H   16.014217   56.866520   61.000805
H   70.801582   93.717476   54.744747
H   23.840122   41.761063   57.854328
H   97.306892   27.396227   36.294945
H   37.334137    8.663665   87.723236
H   74.818237    8.464190   35.956100
H   37.941017   56.607056   58.188972
H   42.271446   67.227676   83.727371
H   68.295242   68.845131   79.761108
H   60.376038   93.246170   88.040672
H    8.255471   48.946434   23.515081
H   32.972775   60.355927   96.863976
H    3.839333    9.427834   67.923477
H   69.515022   15.846828   66.351227
H   74.979042   57.008110   89.742409
H   77.072617   93.718208   36.185661
H   24.028177   30.396572   78.304749
H   54.677372   89.917557   10.781738
H   56.663826   25.660816   85.946053
H   88.600739   78.011581   77.416306
H    4.242874   38.232040   85.145363
H   39.639282    0.447813    4.538652
H   78.986984   77.305855   33.854340
H   99.726051   62.234737   69.263474
H   53.941521   56.978649   68.709976
H   59.189877   23.150146   77.601875
H   45.701843   91.397064   21.592916
H    9.387017   23.186131   63.258141
H   30.945509   73.029556   38.109707
H   76.727158   43.624760   21.037762
H   75.909195   10.967451   26.305656
H   11.043292   92.049065   11.499860
H   21.992670   92.676033   40.254623
H    8.739526   12.277838   67.372871
H    5.525430   26.929413   94.442230
