100
TIME:    0.287, STEP:   287
H   97.914223   95.702034   98.883255
H   93.286766   20.305416   96.104431
H   84.695496   94.552101   19.970016
H   81.524780   20.825922   24.431467
H   92.600418   95.761841   57.923378
H   23.565899    0.901287    7.167698
H   37.928852   80.717537   12.896472
H   97.328659   13.431664   81.842857
H   46.572990   58.699524   82.021812
H   66.997337   20.507305   18.927858
H   73.558990   77.790649   12.104527
H   44.887394   38.076378   72.500160
H   25.006660   44.343567   96.603783
H   40.871372    4.192380   79.081200
H   83.993431   44.386520   36.976490
H   89.983994   86.634224    9.216206
H    0.992165    0.976862   99.485786
H    7.277702   80.743759   89.596481
H   49.733345   90.392624   78.482407
H   84.880562   99.514374   35.767738
H   47.245560   27.645584   49.452354
H   89.867165   44.478745   94.817696
H   81.912163   92.288063   24.139088
H   92.376099   40.123875   85.759766
H   19.318563   63.413265   38.677750
H   45.342983   19.057861   62.272171
H   37.330318   30.546379    5.661380
H    8.325104   69.835373   76.262009
H   17.411865   75.130943   43.605164
H   11.998704   83.736465    6.204610
H   27.391512   47.779167   86.701195
H   83.878784   44.581238   72.695061
H   90.573547   47.483665   23.652182
H   90.228355   47.420807   59.660316
H   73.637993   37.225266   42.204285
H   97.508263    7.030905   19.656805
H    7.326401   94.024757   31.079662
H   52.126793   53.701313   42.693699
H   37.817867   74.381386   14.618672
H   36.161396   85.315331   60.615692
H   15.628872   66.026390   49.101299
H    5.827255   24.737856   16.283728
H   13.713441   65.220993   22.203735
H   61.032471   17.581453    8.793270
H   31.760670   20.568245   80.666687
H   74.285988   68.599419   84.443764
H   39.110523   41.223278   30.075628
H   56.254742   98.337646   86.335892
H   73.417534    8.680531   33.025108
H   31.909094   35.117718   63.590393
H   43.522724   41.935860   56.442966
H   19.080488   37.107361   55.221985
H   14.832544   23.672852   86.201729
H   70.040543    2.519322   44.480488
H   17.911057   83.664963    2.841480
H   93.925339   12.230350   82.856644
H   14.447006   81.265587   83.283470
H    4.688592   49.783119    6.162285
H   12.912590   50.895309   89.450378
H   40.079185   49.848312   55.446617
H   77.804733   65.222275   92.019287
H   88.724945   25.274002   82.369247
H   93.699638   87.581993   13.868806
H   62.748344   43.355690   19.348143
H   43.713852   37.921902   22.288599
H   83.714577   28.005512   63.155544
H   64.542107   58.283001   80.918381
H   60.540733   33.951584   79.922859
H   71.207573   29.164330   42.232807
H   36.200470   62.580498    1.127247
H   12.918711   75.876991   58.705296
H   50.302074   42.000603   77.634987
H   88.278503    4.111584   54.390377
H   23.873863   31.217443   86.151344
H   76.008347   29.052065   23.154633
H   32.443317   25.966196   76.617538
H   93.012543    1.668884   96.111389
H   45.464111   31.954185   30.289989
H   75.310188   52.660709   20.888607
H   85.450455   93.323509   96.195953
H   16.498158   32.250805   97.142319
H   62.857998   46.101883   62.781929
H   35.955387   12.047719   57.235168
H   69.913727   36.720554   37.215889
H   38.355591   30.931831   19.930904
H   44.687992   19.595766   61.713413
H   86.322792   82.485680   37.228436
H   60.575302   82.316185   92.755516
H   61.639107   78.192635   25.852718
H   40.961067   97.477844   34.471706
H   35.767796   88.928757   39.522655
H   99.521721   17.091311   38.992722
H    3.698861   36.230629   41.118126
H   74.967903   30.640886   46.169170
H   51.629932   24.021717   22.681686
H   17.626648   84.398125   52.625053
H   39.821342   84.150826   20.683372
H    7.918948   18.681305   51.443398
H   95.040184   38.087437   21.011456
H   57.065166   71.332008   70.043808
