100
TIME:    5.562, STEP:  5562
H   41.186684   11.958217   94.053848
H   46.865791    6.259373   28.807007
H   75.365387   74.056671   58.057148
H   82.410172    3.495094   35.290565
H   45.352722   18.576250   14.896845
H   41.770809   95.182365   29.569548
H   61.464184   36.910763   25.408724
H   82.724060   69.784775   97.508904
H   16.903358   51.529800   49.979492
H   22.845297   96.245445   25.491377
H   82.891342   90.041855    3.989868
H   43.555840    2.485107   97.020317
H   89.144211   25.245644   72.353447
H   79.684059   87.932228   80.510948
H   48.153603   73.207291   83.412445
H   77.887604   25.256302   71.346405
H   76.844124   49.852985   79.719147
H   20.007391   24.190559    6.718554
H   31.898483   11.684810   56.388401
H   42.666130   87.698280   95.019478
H   34.219749    2.501953    6.282478
H   95.614700   51.467621   45.622589
H   11.482669   49.386833   73.214767
H    2.267611    3.365938   93.990402
H   30.654350   45.065880   77.616493
H   21.191587   62.234253   67.391449
H   82.461731   11.270527   10.324198
H   63.235340   16.055046   50.624397
H   32.111595   53.720005   94.254120
H   14.265371   53.180290   25.551350
H   34.954674   20.811111   69.331200
H   16.945133   98.841980   84.361870
H   62.138218   61.539864   98.865837
H   13.108968   63.998619   37.432182
H   42.515671   38.475632   63.413651
H   56.132633   21.068443    1.939782
H   13.267522    0.841994   46.729107
H   34.104588   57.168819   14.937078
H   10.297374   60.230217    5.313463
H   39.315228   91.487297   75.641685
H   55.128189   47.027496   73.384010
H   31.739605   61.484985   64.102226
H   59.149601   96.853607    3.223700
H   24.191509    6.000884   24.559141
H   74.192726   12.444980   32.066265
H    6.328545   69.003464    5.757414
H   85.187790   27.318901   78.855705
H   56.536457   52.656769   12.722922
H   27.613144   71.804260   22.603058
H   42.529644   15.388548   94.651291
H   43.120274   32.668686   12.059453
H   75.435463   47.627712    8.926094
H   24.244297   54.259094   79.837364
H   47.886925   16.452263   77.252403
H   97.939781   46.032352   47.655994
H    0.523178    6.683039    3.283203
H   48.857651   29.057793   84.979866
H   11.897790   51.625557   70.290878
H   28.939917   73.777153   84.485649
H   91.984634   55.302860    5.414070
H   10.555557   19.913616   80.738335
H    1.511523   76.171768   43.692101
H   51.665295   27.742483   52.067413
H   24.971748   72.061707   76.132812
H   53.089211   16.616051   13.533809
H   59.663506   65.769585   75.052177
H   41.319183   40.654964   35.596329
H   96.160225   35.634617   32.098362
H   34.111614   50.136482   11.392848
H   43.070587   27.894180   90.021149
H   45.414574   16.962280   95.427193
H   15.355095   66.932983   63.846741
H   44.338898   43.186234   19.137520
H    7.769695   97.400475   72.678490
H   30.338076   36.569988   23.035576
H   57.150078   64.046318   21.677786
H   71.949211   44.469173   89.414986
H   93.293198   87.035027   21.607676
H   28.231266   37.181377   79.738823
H   26.757710    6.030349   41.749908
H   19.711496   86.823105   12.416972
H   58.654213   80.541229   21.679598
H   69.684837    0.135669   59.641300
H   32.806915   88.111252   55.413471
H   81.505638    0.977586    8.578859
H   23.280872   13.354850   28.025513
H   38.628136   98.950066   88.761078
H   45.481255   59.997723   37.908447
H   71.110458   84.489250   82.700813
H   74.583710   80.440353   23.045996
H   51.642632   73.762573   50.921062
H   89.830574   13.795043   39.504738
H   41.988312   94.406685   49.122578
H   84.813545   50.613232    1.836315
H   60.427986   51.520229   43.894260
H   53.319992   76.094513   80.164291
H   21.116941   86.872597   17.313675
H   27.280996   63.594788   67.028053
H   43.752136   60.825893   79.161537
H   84.688202   35.904667   61.936527
