100
TIME:    6.292, STEP:  6292
H   91.820389   45.013664   93.385513
H   26.705086   45.818920   74.837074
H   87.918945   26.575275   49.485752
H   82.532700   73.419708   95.276367
H   38.814178   77.088974   95.104095
H   30.448101   94.391502    1.863747
H   23.206936   86.203529   82.495674
H   25.347504   32.939816   30.483257
H   98.958504   81.343185    4.027226
H    2.902834    6.727644   54.074986
H   14.988510   19.414572   33.672470
H   15.691841   39.075932   45.057274
H   42.561264   81.100517   99.816826
H   43.538277   85.682167   36.064312
H   57.028633    8.000366   48.319668
H   48.536560   61.407692   10.749846
H   18.142036   98.138557   46.173927
H   35.618580   88.670471   81.411659
H   43.265774   42.311256   94.849976
H   23.000374   72.192909   44.721214
H   90.900528   29.828861   86.467247
H   65.600510   52.436707   83.456375
H    1.735096   43.449791   52.329300
H   34.440220   12.098848   39.774807
H    4.546905   87.172592   83.007729
H   17.863836   40.652603   98.746284
H   19.512333   80.926712   24.809813
H    1.641656   50.128990   74.754379
H   47.984550   19.951477   59.745758
H   42.255787   35.112968   83.584793
H   63.687508   86.271324   11.575920
H   63.037968   78.669403   16.782066
H   13.556753    8.130007   64.630005
H   43.954201   97.098557    6.679900
H   24.365784   83.277382    7.860476
H   19.590445   78.245033   99.644173
H   83.283455   74.108521    4.250382
H    3.933822   43.807690   66.449287
H   79.485596   44.323845   34.570381
H   70.556610   23.147079   33.075596
H    5.238441   72.075142   90.582497
H   69.958466   66.277222    1.178172
H   65.436249    1.231645   55.951004
H   77.577652   18.253805   95.934532
H   10.871731   83.641586   94.533310
H   96.907249   82.927109    8.723150
H   90.890915   67.018326   85.862083
H   56.575443   60.175537   57.891224
H   48.949738   11.347076   93.483047
H   57.842815   26.500319   43.595451
H   43.069553   62.191559   19.754372
H   10.912802   79.889145   61.005531
H   39.387653   58.491882   37.439159
H   30.983620    4.540532    9.465343
H   39.816917   10.005366   53.865940
H    1.432438    5.915150   78.432266
H   95.138023    7.993573   54.409035
H   57.540192   82.685585   51.488388
H   86.513580    4.621436   28.445763
H   43.811157   11.411496   84.651146
H   56.604969   85.964493   23.822407
H   75.602547   69.377029   10.659871
H    1.223796   77.928139    2.009125
H   75.100815   76.038300   56.314518
H   82.063629   58.313526   81.515373
H   14.819298   29.478996   18.215986
H   82.749313   65.890594   70.839859
H   45.734352   77.383278   66.996582
H   70.495888   97.683350   65.610840
H   57.857498   64.613213   88.483978
H   22.233315   67.293411   86.672005
H   55.162212   42.705841   17.292202
H   96.740524    7.079437    0.418638
H   91.698845   51.197796   29.303724
H   65.531853   37.611477   78.374161
H   74.406471   10.830524   72.556763
H   38.231045   81.212303    2.331072
H   27.589931   39.301888   61.924980
H   63.235310   35.037136   87.881371
H   90.959824   66.264626   78.859795
H   33.997154   94.375290   56.046970
H   13.444059   85.275406   60.614819
H   15.857438   12.342860   29.161652
H   83.028831   50.579369   88.740288
H   45.961357   55.318008   37.813477
H    6.477881   40.169853   78.718719
H   87.383171   45.873131   23.570318
H   57.221672    1.581129   30.339554
H   86.259384   43.843346   76.730354
H   10.040992   50.407314   49.139862
H   81.517204   13.182159   66.337326
H   43.843182   68.697891   53.411674
H   88.782898   16.309887    5.574595
H   55.364094   94.901558   51.058868
H   47.807594   86.130478   60.669468
H   13.615035   47.266998   42.459061
H   63.172935   28.764681   75.330566
H   26.132311   97.787582   52.568336
H    8.976722   63.972637   18.015839
H   30.031504   17.172375   91.611900
