100
TIME:    1.161, STEP:  1161
H   38.808266   15.551592   98.083084
H   68.974907   67.694191   51.235744
H   99.712036   57.430904    9.707825
H   81.671478   84.816307   76.525749
H   84.772079   65.816795   34.224983
H   10.013004   99.950294   93.723106
H   92.122704   39.734280   81.244484
H   28.633987   89.043411    1.594164
H   25.088402   74.667938   27.005880
H   43.112236   33.053596   53.155167
H   92.261642   12.957698   27.916403
H   11.526936   81.885735   10.288038
H   69.409988   91.465126    9.735326
H   97.596077    1.497677   45.593288
H   94.622368   66.319214   94.963577
H   54.843155   10.186535   36.667465
H   30.723915   58.775772   79.061760
H   25.954277   38.241348   59.296677
H   63.342918   27.058527   24.528803
H   61.236580   81.159286   95.378960
H   95.381256   40.636482   25.733074
H   73.672050   45.632324   20.397892
H   70.243004   85.179878   99.131592
H   11.172089   50.606113   20.848137
H   88.060417   94.097878   45.128517
H   41.335491   93.015533   80.352020
H   61.965469   94.215225   23.004972
H   34.579346   10.631032    5.148675
H   36.415924   54.426853    2.291957
H   45.510738   62.105179   75.684898
H   61.772190   26.156931   17.540455
H   39.063328   20.436081   91.784508
H   52.137707   83.538246    2.389004
H   27.156960   67.324013   22.839949
H   51.913353   71.157417   95.426254
H   73.499207   75.686783   16.649496
H   91.154106   62.017921   99.947701
H   16.005745   37.704563    4.370832
H   98.525223   55.724068   30.850540
H   53.839622    3.493830   29.378801
H   55.898766   96.019463   69.697189
H   27.277122   63.966232   57.345829
H   21.241209   70.462112   85.333321
H    5.222109   32.227966   94.250618
H   55.946609   86.083603   55.459518
H   63.108982   85.061073   87.886116
H   48.339161   88.369904   37.543892
H   56.301418    7.337003   40.414013
H   98.969658   36.295021   98.160355
H   50.239674   48.420559    2.463939
H   43.456043   57.556587   65.658264
H   61.555214   56.007565   97.843399
H   32.962975   28.740601   35.440468
H   49.804874   88.262047   83.048721
H   48.333336   60.285259   10.257999
H   95.018906   11.311790   53.103622
H   69.852921   56.046867   66.408195
H   39.607849   67.245552   83.650345
H   81.842369   87.823196   22.352390
H   82.404465   17.025747   30.587975
H   32.937969   24.580063   23.875328
H   57.704987   17.138931   42.823898
H   52.983566   27.982372   53.909035
H   22.762651   48.110039   95.617638
H   78.405159   68.117943    3.682485
H   30.023109   84.556374   14.832769
H   94.418961   88.501526   23.115765
H    0.167403   83.935593   21.705114
H   14.765360   66.364273   87.416420
H   53.904251    6.537391   99.288391
H   85.164787   16.406496   48.223057
H   78.236893   12.994234   41.624733
H   31.292957   60.876804   31.978924
H    4.637406   75.910049   34.206917
H   18.148762   30.295664   89.409233
H   53.107731   81.982323   17.809410
H   72.366936   25.919035   11.577536
H   86.526215   74.806694   78.558289
H   17.201715   50.101414   30.634022
H   42.587967   45.724113   20.899872
H   33.601810   41.292736   49.378582
H   28.433582   51.809769   89.695023
H   91.257149   26.634619   40.479313
H   30.036222   11.509866   57.385506
H   95.797836   76.263504   35.206444
H   24.570316   51.701389   22.406792
H   44.695290   18.938774   78.904007
H   74.644974   12.342091   83.673576
H   79.776314   29.529078   18.701191
H   63.689865   61.510628   65.718376
H   71.535439   36.122532   57.979931
H   64.189201   82.824593   55.642944
H   59.775826   62.416222    8.732782
H   59.443710   83.656319    5.099389
H   36.520039   45.734802   42.764427
H   89.815399   49.884087    7.481764
H   70.447678   34.307705   70.418869
H   11.127946   26.122894   37.460411
H   53.404625   41.854908   47.799122
H   11.343460   48.882725   85.864815
