100
TIME:    0.839, STEP:   839
H   60.584145   45.080696   98.377884
H   77.931908   50.235195   30.924040
H   94.179626   34.264553   13.488632
H   81.617432   98.082298   94.174431
H   87.656204   40.007072   42.955971
H   15.006176    0.300511   61.835430
H    8.999149   17.990339   56.063663
H   53.942551   61.185078   31.159828
H   33.003777    5.626930   47.275520
H   51.912010   28.431103   40.545105
H   22.213287    0.001709   58.931961
H   23.817631   65.745445   33.207558
H   89.893661   10.946800   41.739037
H   13.539314    2.490438   21.088055
H   90.706444   95.081848   10.441786
H   67.789780   38.352200   63.395981
H   56.612190   37.481400   49.743919
H   19.073158   53.900131   70.459763
H   58.328865   13.549327    7.565523
H   69.938423   87.941376   73.426308
H   14.489090   72.692841   34.472313
H   42.796680   45.207321   47.816730
H   74.542168   87.798683    8.344646
H   41.089355   46.744236   44.763771
H   99.577263   19.635494   42.752922
H   42.811947    2.610807   10.534026
H   89.730881    7.600049   16.615187
H   61.747604   95.600876   94.505905
H   29.414429   25.212477   17.512341
H   33.163540   70.074600   50.086452
H   49.105625   97.280266   43.020287
H   18.731970   29.331665   21.593620
H   29.455456    7.097379   73.380699
H   13.551839   96.833473   36.404823
H   59.917168   95.498055   75.817154
H   45.503052   50.392956   17.757452
H   60.269207   73.809914   74.575264
H   29.313499   43.598103   81.647087
H   13.001421   62.597816   61.713623
H   84.168785   33.638660    4.044443
H   77.904663   84.969383   62.110394
H   56.216637   49.513672   42.217686
H   18.467634   68.531174   62.073822
H   25.783209   26.831850   62.765999
H   83.878181   98.789474   27.903288
H   67.236061   78.976372   86.608437
H   44.939137   71.001282   34.792427
H   56.284222    4.021734   20.490461
H   89.555717   62.962120   11.005332
H   43.486301   43.519512   24.984253
H   43.480610   88.643227   62.263157
H   45.906258   85.886185   18.982666
H   26.283304   26.873535   54.143059
H   57.260853   93.514397   68.839371
H   73.967682   32.055721    7.525574
H   94.616013   11.650196   64.065262
H   49.439789   65.337975   35.783409
H   63.584900   97.654152   91.944046
H   56.446098   74.218185   47.073330
H    3.654267   92.275620   39.746422
H   12.625191   39.553436   48.979988
H   69.133392   20.136063   57.394379
H   31.141407   49.940269   75.999367
H    0.651354   46.358437    4.359678
H   65.625587   93.834312   73.696281
H   49.804176    0.563998   95.794090
H   20.254194   77.367920    7.568768
H   22.410484   65.520432    6.311652
H   98.716606   89.501144    7.610931
H   47.381805   90.342430   99.966431
H   95.389427   38.316616   52.084934
H    4.788195   23.680901   18.048845
H   52.287659   76.805336   40.235775
H   11.724271   96.285629   53.344337
H    2.624290   29.837496   64.999809
H   45.494526   61.346024   39.475544
H   43.130871   53.827019    5.879915
H   71.398071   95.860313   60.776501
H    1.766612   51.044773   27.043606
H   58.379410   63.262245   48.640533
H   27.300465   37.961498   30.133186
H    4.273510   49.706863   16.621193
H   70.881569   21.260664    9.810431
H    7.884697   83.955910   86.796700
H   11.476841   96.403244   66.420830
H   31.982075   39.872547    0.045815
H   23.189642   42.350792   63.549847
H   69.461411   38.121483   87.019554
H   73.094185   47.457649   21.335964
H   92.157700   74.761414   54.206448
H   58.357883   18.735777   51.179882
H   40.364460   58.606789   49.508652
H   39.115273   52.768898   83.821983
H   28.320223   64.125832   83.387733
H   42.086842   74.577606   35.364952
H   63.219543   62.599785   24.113701
H   96.006821   15.828677   88.937210
H    9.945676   23.381256   42.612038
H   68.744041   40.466892   74.771828
H   91.346176   57.154316   16.878168
