100
TIME:    5.887, STEP:  5887
H   19.208647   82.154320   93.756302
H   37.889809   23.871328   49.300320
H   80.954300   97.438858   54.241116
H   82.464722   90.105194   17.475986
H   42.441727   44.626434    6.085133
H   36.729877   94.830269   61.756535
H   44.432133   58.857288   50.824146
H   57.179703   97.902908   67.669960
H    8.914238   20.282471   29.520849
H   13.966238    0.912039   38.217594
H   52.660629    3.118919   72.683205
H   31.150635   18.775257   73.886086
H   68.405228    5.591465   40.059746
H   63.591759   86.930489    5.242512
H   52.106010   44.176682   67.791260
H   64.820358   96.830360   44.368866
H   50.709633   71.349083    9.305182
H   26.957579    8.377209   95.452187
H   36.959278   25.319872   73.511093
H   33.910828   80.795204   17.146906
H   14.933784   70.148560   97.461128
H   26.772766   51.899063   17.945816
H    7.142892   46.743629   63.916443
H   72.071510    7.253878   69.854431
H   19.031445   19.290924   80.016701
H   19.710054   52.625984   36.830681
H   54.436974   97.760513   16.772970
H   35.813961   31.224953   61.368301
H   39.178322   83.206848   78.890808
H   26.726452   45.136620   51.387985
H   47.746689   49.953777   43.618233
H   37.465916   89.861038   54.274971
H   85.029655   37.760948   28.144407
H   26.841843   34.214226   23.740839
H   34.437286   13.907358   83.205368
H   84.384659   46.524071    0.917666
H   44.438728   88.940063   72.337929
H   20.672825   51.220371   37.870495
H   96.578949   53.148613   73.818352
H    8.704199   61.062939    1.210899
H   32.916351   58.178047   81.040871
H    4.089631   64.689011   80.500633
H   61.949017   98.802536   26.698597
H    3.439816   11.456015   56.334908
H   46.001789   99.622574   59.876934
H    2.134621   75.202347    7.077776
H   87.726852   44.993484   81.974983
H   56.553814   56.004166   32.832096
H   37.112312   44.887993    9.638410
H   49.345936   20.335257   71.918747
H   43.097363    1.291257   15.485576
H   91.230217   17.469505   87.591072
H   30.986202   56.143555   60.962605
H   40.361481   11.149066   91.594139
H   72.063164   74.514069   50.420696
H    0.928004    6.341170   92.219421
H   69.460915   19.680122   15.890280
H   87.697662   20.933199   61.919907
H   54.571060   87.508919   59.536385
H   70.536499   80.282745   96.170311
H   31.057579    4.799959   55.398144
H   89.976784   73.146713   28.985870
H   73.729744    5.564411   29.781189
H   47.289818   73.832108   67.310562
H   65.989944   90.659195   43.799992
H   39.698143   49.612816   94.268715
H   15.243404   51.889820   51.286942
H   73.710350   54.221348   47.635242
H   50.310535   26.784050   91.009857
H   49.653801   44.241562   89.336792
H   35.094673   94.849182   91.529335
H   88.557083   56.146927   87.640549
H   23.148117   27.111290   10.803741
H    0.616111   76.830101   53.367729
H   46.006504   37.033665   47.672867
H   64.833946   84.874565   99.809723
H    1.455966   16.299662   95.162590
H    8.562297   65.785255   39.557159
H   43.815258   36.226749   83.363930
H   10.821182   88.326546   13.750764
H   26.071550   90.185379   31.840666
H   83.047516   82.648849   94.493065
H   90.240334    5.570423   90.591431
H   55.165047   15.922281   25.730740
H   65.681129   80.650108   77.073807
H   15.800060   25.292660   50.594406
H   60.334145   75.319923    4.258338
H   50.708153   33.989689   34.538734
H   77.854843   66.393471   80.042732
H   45.849079   67.070602   34.663658
H   64.942955   91.312851   57.784466
H   13.877283   38.237610   45.696182
H   62.821518    4.157293   74.255325
H   16.223648   70.330635   23.750292
H   54.809319   22.407795   51.362675
H   80.163635   63.260345   63.377716
H   95.320305    5.523613   98.622269
H   26.914057   77.746460   60.697876
H   28.269806   62.226841   51.939903
H    4.876247   27.565269   30.627209
