100
TIME:    8.721, STEP:  8721
H   27.556152   22.264009   91.161697
H   59.623459   77.442902   27.991543
H   29.676889    1.328123   20.968899
H   82.940399   73.345024   62.136528
H   17.051481   71.783859   29.242470
H   92.778442   91.759987   42.415909
H   95.903023   50.222481   72.446724
H   34.432892   43.078823    7.459872
H   39.249046   47.804123   51.132046
H   36.558601   41.605640   49.183144
H   89.048859   17.150562   99.698952
H   22.984474   60.829250   72.158836
H   87.640350   34.116562   58.437561
H   23.269449   78.195320   20.911747
H   86.531258   91.030128   31.507874
H   50.871078   48.958458    9.121450
H   22.816200   58.795895   67.295387
H   87.555283   70.475136   97.214432
H   81.097549   44.210896   22.818233
H   57.554394   20.613924   10.098780
H   46.760216   88.014008   20.541712
H   98.471107   55.661240   76.604584
H   69.304283   23.698790   82.831848
H    8.750887   41.156708   59.377789
H   17.671642   94.540741    0.946053
H    6.486509   69.008408   70.197922
H   10.056986   79.956070   73.007553
H   96.689484   63.506504   55.044067
H    0.800226   40.329067   44.925163
H   35.394173   74.994583   76.683228
H   59.283718    4.085150   19.401314
H   16.406391   11.561403   91.917442
H   84.652481   30.412033   83.453506
H   46.585480   74.495117    4.350215
H   63.914116   99.367958   55.646397
H   30.738737   68.498428   92.009071
H   16.256714   85.152596   95.646141
H    3.538149   99.351738   37.857643
H   76.956688   91.402611   99.183105
H   41.772644   95.752159   24.184340
H   39.232483   55.419037   47.807461
H   65.255508   75.802567   25.183781
H   86.340118   15.802462   31.400013
H   22.479198   59.028969   33.427502
H    0.174104   87.812172    2.390320
H   65.551445   29.251080   18.591333
H    9.873965   99.115120    9.180525
H   56.719906   85.193466    8.183426
H   19.954704   10.177635   96.588898
H    8.837673   63.472637   73.761131
H   42.902767   27.687534   45.360886
H   28.970003   54.495480    1.556495
H   89.766136   72.576050   96.370163
H   74.731293   64.917938   16.649895
H   46.416176   22.871347   74.519455
H    4.457754    3.360078   95.743362
H   49.124596   37.905846   85.427055
H   76.672302   53.296532   88.921410
H   78.083870    7.261562   41.974693
H   83.522636   98.112335   15.564598
H    9.827650   73.003174   34.438145
H   89.392570   46.768234    0.756171
H   66.130630   12.177375   35.445312
H   41.895435   89.270004   90.363403
H   78.475464   64.313354    7.717362
H   65.604103    8.726682   61.837940
H   87.866013   49.868565   88.111496
H   77.946564   16.300659   83.116837
H   91.554901   23.150887   13.266037
H    7.143941   86.677689   83.346512
H   45.097515    2.022516   57.540016
H   55.113388   62.028709   95.292099
H   38.366089   86.934532   38.143848
H   38.225010   97.468239   84.981758
H   82.570816   41.156429   62.533726
H   31.827211   66.508537    9.117221
H   58.835770   70.976440   45.411430
H   41.704098   80.480751   96.075684
H   79.716423   27.902393   14.982582
H   71.839409   33.945763   69.599297
H   81.543388   19.505106    1.225235
H   95.713394    1.028491   57.404312
H   69.497932   52.964146   60.487949
H   50.139481   58.434181   66.887779
H   27.690704    3.370565    2.350576
H   50.579639   29.389942   47.395981
H   49.610722   69.264412   39.394188
H   96.286705    7.210865    5.154649
H   36.671391    8.601303   56.864265
H   95.284927   50.471992   35.971786
H   80.921928   44.338657   17.633690
H   23.564585   51.381760   99.699867
H   44.486347   89.189049   93.412903
H   90.116348   42.265858   14.842060
H    5.808879   68.556412   16.485830
H   14.240478   51.348877   16.998192
H   70.370415   68.159065   35.636269
H   21.443766   17.975792    3.805815
H   93.264854   74.461586   14.561802
H   80.905853   54.836971   57.619305
