200
TIME:    0.468, STEP:   468
H   16.477201   61.718311   19.238235
H   29.996458   36.206703   99.153069
H   13.358966   79.117676   56.578423
H   25.528061   79.638680   38.537552
H   12.789409   89.507874   50.380409
H   82.201355   46.626717   58.800835
H    6.662536   55.142357   54.064480
H    7.997979   98.731964   16.979298
H   96.687843   84.088104   42.157360
H    2.835202   71.705162   87.079231
H   20.140696   99.464790    0.166687
H   31.720612   48.108490   23.605967
H   16.770153   94.574715   51.947075
H   93.627113   54.168880   53.252499
H    8.614013   73.699745   42.417603
H   22.654621   16.572186   49.404564
H   94.933182   18.396866    4.362293
H   31.148048   94.127640   39.461239
H   72.611389   21.447544   45.840202
H   90.781624   76.573570   28.632313
H   60.821312   88.139816   15.394777
H   84.953163   57.529274   61.788467
H   88.177666   60.883713   43.665474
H   13.437524   90.137886   90.871147
H   13.156569   21.873831   37.274700
H   18.472357   72.454819   99.426247
H    3.311049   63.371647   58.249039
H   99.742706   79.534920    1.331203
H   20.671513   49.599556   37.003296
H   82.746353   26.872171   90.738998
H   13.063820   60.974766   16.473568
H   27.779949   68.850082   99.216499
H   21.614296   13.891586   75.964096
H   88.880592   63.826668   42.275497
H   37.046970   80.379868   32.484806
H   25.613579   44.723450   82.090950
H   92.808472   69.507950   87.666603
H   21.637245   50.653095    4.916122
H   44.631927   38.236263   49.499672
H   87.896194   38.750896   54.790131
H   80.572151   94.573013    9.092109
H   24.687822   38.325867   33.070564
H   72.596634   82.544289   58.794437
H   36.773331   74.307564   26.902685
H   36.567184   83.251419   52.591759
H   37.851280    7.904839   45.167538
H   84.270721   15.041950    1.178154
H   84.565071   65.547127   39.451126
H   95.897903   20.099880   61.330715
H   53.958263   18.830420   96.066559
H   72.784470   67.610283   18.832890
H   12.422432   39.622295   68.443642
H   58.325470   87.898735   10.910013
H   19.013260   86.995163   85.079536
H   67.548141   71.314285   83.399605
H    2.382856   66.733208   86.114166
H    4.779801   17.608253   47.208851
H   69.899643   63.879658    1.188317
H   23.370134   78.881882   12.640924
H   37.829990   94.708900   62.779419
H   49.681099   10.928064   35.575081
H   94.033806   16.964998   50.813728
H   77.728653   29.929651   77.192841
H   29.650261   65.477623    8.758064
H   75.013504   79.478058   27.252897
H   29.795942   25.419104   36.961563
H   77.658546   18.352699   90.545692
H   96.064629   91.968300   91.785561
H   24.632479    8.934340   59.093971
H   43.924511   45.603878   50.970417
H   58.365143   80.535583   79.380035
H   25.732609   17.828814   43.168835
H   84.730118   29.604809   91.861084
H   15.293254    3.953099   67.210121
H   81.921280    4.562369   56.892166
H   59.076729   11.027192   61.387589
H   94.463898   38.438095   68.920540
H   18.110394   10.121695   40.171089
H   13.263973   39.851345   29.888683
H   64.840576   89.395370   83.448883
H   53.044949   26.248617   97.748810
H   36.661846   64.490242   80.808769
H   10.110175   16.167269   83.608727
H   17.239000   69.315102    1.282633
H   30.789093    1.734847   51.320816
H   31.090759   77.796967   23.036591
H   46.073921    3.259211    2.294032
H   73.435432   10.058466   20.041851
H   72.664261   72.612198   77.991943
H   22.302147   96.266731   52.357143
H   31.685143   36.861042   79.740356
H   82.467262   90.535889    3.342757
H   58.090702   14.290680   89.236267
H   49.803944   86.242332   75.365135
H   30.902222   53.842064   77.435722
H   59.830055   32.806908   18.341566
H   82.398430    6.393118    8.148603
H    0.626834   31.981640   50.752293
H   31.851585   67.494064   53.689247
H   71.168755    1.632276   27.306070
H   20.038725   86.730347   79.676003
H   99.050636   80.106003   64.606941
H   27.905622   28.837572   33.688946
H   32.831688   68.360443   99.216476
H   25.036501   24.476440   32.479549
H   96.449379   15.610064   33.216316
H   76.458870   32.927822   55.198135
H   63.407917   43.028419    9.925224
H   78.590843   37.211647   10.157551
H   11.690906   24.881449    6.653155
H   50.194313   94.085487    0.956265
H   95.148956   69.078796   93.108238
H   53.134064   82.920441   88.976051
H   62.451836   14.481949   69.074463
H   56.241676   91.462769   18.778343
H    4.733680   99.127327   89.220062
H   23.200764   11.653178   86.838058
H   39.614346   38.218876   29.421013
H   27.521147   66.273697   72.271164
H   76.799568   51.225399   57.848053
H   42.934212   23.274540   80.048668
H    8.451344   22.078876   54.894814
H   37.733223   12.206514   30.792768
H    0.718072   59.114113    7.880722
H   70.094048    3.306893   85.272392
H   56.075436   68.590515   21.129141
H   89.719337   50.254501   62.249405
H   70.441521   89.358177   36.928204
H   95.273537   44.230602   79.694374
H   78.796249   23.068680   70.385918
H   57.812660   77.044830   12.124508
H   72.948570   88.312729   14.703786
H   91.693245   93.687538   99.071167
H   89.740784   18.848736   52.513500
H   15.689542   97.247528   45.939865
H   56.285477    1.334234   80.322624
H   69.270187   87.145515   66.688911
H   93.163109   57.102039   79.595863
H   52.272766   47.522141   71.496162
H   43.571449   98.154869   89.122223
H   61.905285   56.363754   22.274963
H   46.742142   47.938393   51.561939
H   47.676109   60.957539   91.693909
H   47.265633   18.274481   81.902626
H   51.019009   62.205460   56.524052
H   54.294090   65.903976   18.926445
H   50.123711   95.779320   45.649372
H   36.426765   64.931664   67.516869
H   71.280487   55.272926   95.677887
H   16.729858   91.164024   81.464676
H   68.183723   65.182083   49.622959
H   43.385071    0.801044   41.007324
H   86.767578   23.313290   95.460800
H   15.937048    6.376146   70.318275
H   22.653599   59.900326   64.878258
H   70.270500   44.094242   61.075500
H   61.697857   67.721176   83.455490
H   49.287628   33.001724   15.065708
H    1.946686    0.875237   94.149391
H   61.123478   47.640961   86.990768
H   56.195557   75.146538   77.353722
H   32.899212   21.874744   33.568771
H   75.033623   24.629238   37.137249
H   19.643736   26.877613   61.443893
H   56.771111   29.824797   12.064806
H   15.841926   57.184704   61.055470
H   70.973778   93.879219   54.638737
H   23.831387   41.306084   57.440815
H   97.171013   27.428747   36.318558
H   36.877785    8.739129   87.835846
H   75.009277    8.345267   35.956940
H   38.286476   56.978493   58.158264
H   42.078232   67.657364   84.008743
H   68.418381   69.084312   79.529099
H   60.840820   93.321396   88.510872
H    7.946729   48.892418   23.505487
H   33.075504   60.043541   96.445656
H    3.750705    9.418297   67.795609
H   69.770760   16.079302   66.468185
H   75.454735   56.900841   89.601341
H   77.255188   93.359856   36.418167
H   23.826475   30.384365   77.939682
H   55.137844   89.928162   10.583603
H   56.446045   25.642315   85.578163
H   88.471420   78.445312   77.457504
H    4.033528   38.147659   85.095314
H   39.291077    0.619105    4.317076
H   79.467407   76.882271   33.504417
H    0.015661   62.190144   69.149185
H   53.759674   57.033047   68.583633
H   58.712162   23.480995   77.673286
H   45.783821   91.125305   21.720289
H    9.164897   22.948227   63.029068
H   31.120203   72.630463   37.908176
H   77.070328   44.071423   21.070473
H   75.884781   10.942913   26.442661
H   10.976821   91.776390   11.162335
H   22.283293   92.874779   40.536644
H    8.872878   12.249857   67.820107
H    5.629728   27.268215   94.581161
