100
TIME:    2.882, STEP:  2882
H   22.424278   57.727226   96.507462
H   21.102242   61.003777   59.795673
H   29.293753   81.246902   89.508156
H   81.960342   13.911615   82.191345
H   69.357239    3.762511   87.562363
H   83.329597   98.085808   64.160942
H    1.925562   55.945160   15.829093
H   93.366776   37.931332   43.578693
H   82.782875    9.200869   18.675022
H   96.084373   57.764610   20.545244
H   32.178406   82.206161   62.139736
H   45.843842   68.150467   87.785484
H   59.937096   87.342255   38.681625
H   12.381297   96.192726   76.562019
H   15.556282   12.595574   12.236596
H   85.645020   59.658844   93.809914
H   92.353767   72.591675   35.748180
H   62.731934   54.549019   99.629578
H   90.154442   99.255020   15.198076
H   14.873886   44.611813   12.552546
H   93.254761   69.305878   79.019501
H   38.680496   47.909882   73.849365
H   47.265175   71.183098   49.893387
H   51.272491   71.246765   93.030830
H   26.506683   57.603218   57.825409
H   33.444248   41.734722   19.041838
H   13.560356   22.675230   57.156590
H   89.367210   90.961739   62.037746
H   73.836960   10.569774   20.938356
H   11.502442   19.510849   12.499470
H   29.479338   80.489746   81.364281
H   47.728371   72.883354   32.462868
H   73.362518   57.621315   57.430275
H   99.871941    9.604641   50.336533
H    9.132218   41.063110    0.223389
H   23.133213   10.880537   10.732980
H   56.219650   98.989731   35.555538
H   44.872147    6.205336   25.816425
H   23.422043   18.622950   65.025009
H   91.741318   42.380203   64.785194
H   38.287060   55.070148   10.244834
H   72.603416   41.204498   38.199448
H   36.065189   80.782440    9.643893
H   95.324463   61.074989   62.519730
H    6.663836   18.183132    2.731052
H   40.905834   17.886524   94.871376
H   64.250290   81.570343   53.125023
H   56.393330   25.056192   46.899742
H   49.271896   93.762810   29.509371
H   86.326439   74.609962   82.093536
H   43.324741   91.404694   83.804184
H   45.192005   96.310822   84.863914
H   68.662239   38.719543   35.487152
H    9.954754   60.187920   58.990997
H   11.323322   11.154929   24.861040
H   97.172256    9.503107   94.516724
H   78.957558    6.387860   30.089729
H   11.456752    4.718010   39.322830
H   17.574417   60.540386   90.230553
H   68.835373   49.308811   81.639656
H   41.499825   44.545010   89.692642
H   96.626793    1.117052   64.955170
H   69.720421   10.620352   35.843094
H   40.941277   57.471863   48.896183
H   46.714443   30.663139   63.957268
H   24.299232   99.000191   16.591129
H   56.340401   47.999805    6.204705
H   81.286232   82.361511    3.978866
H    0.539302   42.704185   79.478951
H   88.774231   93.098701   95.664459
H   30.516766   99.307991   27.577774
H   36.333191   55.877167   67.629425
H   19.079870   75.750053   87.852043
H   66.768669   67.002121   31.922722
H    1.125279   32.746441   19.873203
H   93.788567   92.281731    2.008180
H   28.621538   76.754776   42.019352
H   67.381927   62.275089   73.602982
H   99.716461   45.053387   49.835953
H   58.186653   51.994961   72.634354
H   67.279465   59.097271   52.238911
H   57.564728   63.049210   45.786720
H    0.143155   55.362244    4.396202
H   48.426792   58.778046    0.191390
H   11.999566   68.614868   68.374870
H   84.961853   14.914257   41.918118
H   59.636986   93.808037   60.968201
H    2.349116   74.554565   65.771675
H   15.492237   33.706474    4.621324
H   11.530638   90.701248   27.242840
H   41.965942   29.051903   94.324295
H   91.529892   12.249296   88.438805
H   70.196411   13.990410   41.873924
H   25.783855   88.047447   21.137501
H    6.761532   91.577209   82.312553
H   31.962997   81.924568   18.590149
H   33.842361   33.072475   71.443077
H   17.446096   40.776184    9.921867
H   71.421654   49.273464    3.639377
H   18.223650    4.678044   20.107050
