100
TIME:    8.890, STEP:  8890
H   16.127842    6.766275   91.006973
H   54.955948   86.599991   38.647923
H   32.581837   13.486232   18.985207
H   82.968765   66.382439   52.872421
H   15.537119   85.329956   24.660702
H   90.158447   91.576897   59.153191
H   87.045067   61.634674   85.662743
H   21.149826   57.698963   91.943153
H   35.094704   31.555492   40.493473
H   31.942656   44.032230   55.800179
H   73.328888   23.950043   83.419395
H   16.533768   69.300392   60.129036
H   76.863815   23.888008   41.643547
H   14.902055   77.674416   33.773190
H   88.583931   75.934212   23.380989
H   44.076111   34.177147   95.092834
H    9.226104   69.974113   82.680122
H   91.170670   62.251549   91.355545
H   83.730438   51.301128   31.721317
H   53.001637   17.024969   21.605097
H   36.731514   71.190338   15.954786
H   14.673303   55.885590   62.212662
H   67.047890   22.324968   77.996719
H   93.048584   43.178436   46.825794
H   11.627498   81.139053    2.193563
H    5.689358   64.026291   54.294071
H   95.484093   72.931595   76.359909
H   82.429077   71.394852   60.630898
H    4.475154   55.662228   36.936241
H   41.874535   70.811874   90.118439
H   65.935188   19.239521    6.030571
H   27.077198    6.892319   76.272255
H   96.555923   18.047642   98.678360
H   53.725998   59.007233   97.230659
H   59.708199   86.572273   65.928864
H   45.429737   81.735077   91.477852
H   32.465981   78.963631    8.962533
H   96.552818   96.259834   49.783005
H   69.823906   87.720177   82.805557
H   25.855150   79.931618   37.481209
H   27.682570   61.217323   51.789028
H   51.013153   76.465302   33.811451
H   87.794525   16.816486   43.606457
H   11.688480   61.866867   49.950748
H   85.514008   81.146141   16.852755
H   63.370209   32.473949   19.277922
H   11.195245    8.306345   10.803516
H   56.730221   86.934113   18.639957
H   24.894272   96.181129   89.848083
H   12.385046   66.045952   61.945141
H   42.891163   11.371231   47.142792
H   37.183514   38.812901   90.462715
H   93.270638   73.555969   86.555496
H   70.816772   62.160408   24.106953
H   32.960335   37.681915   75.955811
H    4.668243    3.182306   89.990204
H   59.837952   33.029457    1.500337
H   64.088074   37.336739   84.568504
H   91.413353   14.402741   28.999937
H   72.369606   11.102445   10.757835
H   20.488600   65.143188   21.262096
H   83.394432   45.195206   93.110130
H   77.603424    0.644943   23.856476
H   53.501034   90.190613   85.775833
H   85.182755   50.814991   23.455862
H   55.222115    0.325478   71.830544
H   74.307022   55.710690   96.270615
H   66.272629   25.966404   91.196014
H   99.977051   11.007622    2.666457
H   10.576278   95.166885   82.988068
H   39.729877   90.523781   55.513130
H   41.197243   56.417381    7.679827
H   27.347153   78.574272   33.810284
H   34.505184   86.771645   74.940163
H   90.711884   41.405277   75.347458
H   35.822960   77.339226   97.745682
H   74.184402   56.349178   48.409210
H   49.642735   69.430870    5.410050
H   87.821388   27.405987   16.868753
H   63.551353   24.739168   55.039757
H   84.851906   21.253489   11.326442
H    8.395079    2.125582   43.266396
H   80.186790   55.790440   76.582115
H   61.765709   72.895729   51.452518
H   19.461960   92.798080   85.967926
H   46.689617   35.597977   59.131805
H   60.897846   56.976738   47.452736
H   99.004692   93.687782    3.402426
H   40.178471   99.191826   55.482063
H   80.343735   43.518433   42.012474
H   87.838097   53.463512   21.202660
H   36.068874   64.092346    2.919620
H   55.319614   94.258842    6.481929
H    6.449744   52.518909   26.236879
H    2.886688   53.418331   20.368761
H   28.199173   44.675110    8.268887
H   56.955833   77.857689   25.916611
H   21.117556   26.337986    0.412844
H   85.214043   75.191368    0.405854
H   91.403885   50.500828   41.338459
