100
TIME:    1.168, STEP:  1168
H   38.334877   14.909668   98.076675
H   68.780190   68.073692   51.677303
H   99.832306   57.934521    9.625633
H   81.672653   84.527916   76.142082
H   84.709381   66.377876   34.035179
H    9.904457   99.942711   94.416313
H   91.755806   40.206974   81.791893
H   28.083801   89.649033    0.951439
H   24.916328   73.994919   26.565256
H   42.920937   33.154106   53.429298
H   91.610519   13.239347   27.242128
H   11.259747   82.236610    9.789789
H   68.964691   91.041618    9.039596
H   97.249474    1.476096   46.126011
H   94.707497   65.693939   94.627121
H   54.561707    9.574238   36.086411
H   30.161152   59.238693   79.699104
H   26.103867   37.900940   59.054001
H   63.451920   27.352205   24.897570
H   61.048004   81.010605   95.855553
H   94.965866   39.939590   25.543083
H   74.343254   45.641563   19.801830
H   70.149544   85.122948   98.931320
H   10.521713   50.690067   20.328232
H   87.810051   93.542671   45.180161
H   41.303394   92.806931   79.695877
H   61.361824   93.924271   23.143881
H   33.988731   10.957782    5.380049
H   36.568130   55.061954    1.961075
H   45.779156   61.931931   76.241386
H   62.047550   26.784689   16.986557
H   39.505314   20.242699   91.136482
H   52.630802   83.026085    3.019619
H   27.452721   66.682503   22.545069
H   51.739357   70.628273   95.852539
H   74.107819   76.236649   16.625410
H   91.825523   61.761574    0.499265
H   15.716433   37.576443    4.864789
H   98.210556   55.574638   30.179604
H   53.180328    2.838501   29.929548
H   55.420410   96.259682   69.862106
H   26.648003   64.280373   57.674702
H   21.301504   70.504089   85.838966
H    4.775123   32.345299   94.935066
H   55.339439   85.807388   56.058571
H   63.018673   85.194588   87.914528
H   48.413074   88.747482   37.603706
H   56.301792    7.409074   40.847134
H   99.174309   35.715302   97.881149
H   50.386486   48.527103    1.974365
H   43.455509   56.880791   65.732071
H   61.895409   55.357990   97.383896
H   33.108185   28.781189   35.033890
H   49.642788   88.147865   83.357620
H   47.776047   60.898945   10.317400
H   95.027664   11.304434   52.865326
H   70.296722   55.844887   67.073952
H   39.086609   66.584496   83.470047
H   82.394478   88.118958   21.814995
H   81.942505   17.563810   30.388878
H   33.379528   24.254555   23.329575
H   57.456543   17.073776   42.507149
H   53.458397   27.505005   53.428810
H   23.243330   48.148117   95.427620
H   78.682976   67.558891    4.334382
H   29.593086   84.208382   15.246651
H   93.857346   88.743561   23.453743
H   99.683861   84.335922   22.039755
H   15.114246   65.861298   86.977425
H   54.046043    6.889475   99.273651
H   84.942513   15.930197   48.139103
H   77.659683   12.761906   42.137268
H   30.836525   60.530575   31.799427
H    4.483344   75.467102   33.790886
H   18.486259   30.305624   89.939873
H   53.273235   82.430931   17.338398
H   73.002464   25.312319   11.701397
H   86.855087   74.349007   78.944839
H   17.537264   50.080906   30.712074
H   42.244675   45.342850   20.296814
H   33.738796   41.365154   49.796963
H   28.958801   51.855484   89.109695
H   91.700096   26.751444   41.146030
H   30.517782   12.108865   56.746132
H   95.457001   75.825684   34.527870
H   24.409191   51.958538   22.892891
H   45.162804   18.429817   79.237793
H   74.757660   11.781664   83.600838
H   79.921577   29.139349   18.643913
H   63.070999   61.222610   65.968636
H   71.821907   36.500484   58.127758
H   64.707130   83.351067   55.776299
H   60.224968   62.625946    9.274330
H   60.120308   84.080894    5.571355
H   36.399021   45.107765   42.925285
H   90.393570   49.607658    7.120193
H   69.892044   34.709423   70.016296
H   11.153647   26.182495   37.348419
H   53.071159   41.885082   47.212780
H   11.778183   48.702908   85.190620
