100
TIME:    9.659, STEP:  9659
H   64.123199   36.245094   90.302933
H   33.717392   28.271008   87.135918
H   45.800198   68.811104    9.957838
H   83.097839   34.700615   10.719293
H    8.646322   46.968430    3.811443
H   78.236694   90.743782   35.308784
H   46.741261   13.559428   45.799557
H   60.707947   24.228390   21.336075
H   16.191216   57.618500   92.087624
H   10.935846   55.073933   85.909645
H    1.798318   54.891861    9.343496
H   87.183708    7.846285    5.391276
H   27.827393   77.341713   65.221985
H   76.825775   75.304146   92.293724
H   97.924202    7.243324   86.398949
H   13.155209   66.917465   31.259792
H   47.387733   20.839012   52.685226
H    7.619101   24.831795   64.695877
H   95.710861   83.560226   72.237000
H   32.285244    0.694175   73.962242
H   91.097473   94.633675   95.081131
H   88.398087   56.906448   96.725235
H   56.780632   16.073675   55.995453
H   21.597149   52.377899   89.712891
H   84.123642   20.153191    7.870006
H    2.061886   41.356186   81.927269
H   29.172253   40.963924   91.614120
H   17.543558    7.289175   86.047539
H   21.196972   25.431890    0.586676
H   71.362099   51.779312   51.251167
H   96.197197   88.197021   45.189758
H   75.632523   85.643692    5.082054
H   50.725166   61.783920   67.955956
H   86.217468   88.533043   64.833061
H   40.570030   28.348122   12.713641
H   12.277845   41.968296   89.060646
H    6.223145   50.802010   69.556778
H   64.765388   82.190758    4.050879
H   37.362820   70.964012    8.283802
H   53.423038    7.939069   97.984329
H   75.127380   87.606491   69.906334
H   86.205727   79.482224   73.065910
H   94.412506   21.430885   99.153099
H   62.591908   74.775246   25.139240
H   18.803595   50.801701   82.657333
H   53.449104   47.141460   22.402102
H   17.207752   50.130558   18.188173
H   56.777157   94.854568   66.221359
H   47.370766   32.491833   59.174461
H   28.525503   77.756493    8.175133
H   45.064671   37.297142   51.829987
H   74.556335   67.456451   39.983009
H    9.219627   78.014893   41.893059
H   53.008171   49.610886   58.041023
H   71.730843    5.072942   82.491653
H    5.626032    2.373393   63.811630
H    8.591452   10.840105   74.638695
H    6.827167   64.713737   64.761497
H   52.064968   46.898491   69.964699
H   21.624920   70.211899   88.885658
H   69.001556   29.383394   61.310688
H   56.101128   38.037460   58.317833
H   29.816044   48.179901   71.128220
H    6.305671   94.379654   64.901031
H   15.704455   89.394417   95.068871
H    7.982237   62.096092   17.300318
H   12.608681   82.298126   33.399426
H   13.152692   69.945869   27.958664
H   38.305695   55.752197   54.438259
H   26.194244   33.790714   81.357040
H   15.307503   38.198940   46.290199
H   77.871483   30.884178   64.045197
H   77.207382   40.536236   14.091282
H   17.578876   38.102100   29.248110
H   27.753962   42.537609   33.653370
H   54.004807   26.623676   46.000748
H   44.026314   89.788986   62.049995
H   85.769417   19.150642   47.881340
H   24.697966   25.147190   25.452181
H   25.838730   82.847450   88.789833
H   99.906639   29.209146   57.288704
H   66.098289    7.117669   78.931389
H   28.826105   68.650917   49.817974
H   14.673291   38.701126   81.216789
H   82.018738   44.691002   11.422488
H   28.988865   63.847603   12.533601
H   12.257692    1.063869   84.121513
H   11.371372   32.154640   95.432632
H   56.136723   56.374428   49.192635
H   12.353198   11.877678   69.500565
H   19.309408   94.988678   37.442528
H   92.967087   21.928488   17.569757
H    4.614107   17.332258   65.949883
H   78.541786   99.003708   81.510124
H   89.591553   84.535225   38.038246
H   91.715363   14.309124   68.548965
H   95.916679   21.988365   81.689941
H   19.633204   64.386002   84.970970
H   48.580467   78.512093   35.995289
H   39.168716   30.769909   67.258682
