100
TIME:    1.256, STEP:  1256
H   32.383705    6.839755   97.996109
H   66.332314   72.844566   57.228329
H    1.344696   64.265694    8.592369
H   81.687424   80.902428   71.318840
H   83.921173   73.431465   31.649071
H    8.539864   99.847374    3.131086
H   87.143379   46.149418   88.673607
H   21.167175   97.262558   92.871910
H   22.753120   65.534103   21.025980
H   40.516029   34.417656   56.875526
H   83.424973   16.780109   18.765535
H    7.900799   86.647621    3.526030
H   63.366745   85.717522    0.293216
H   92.892174    1.204792   52.823093
H   95.777687   57.833874   90.397385
H   51.023499    1.876801   28.781723
H   23.086414   65.058273   87.711433
H   27.984421   33.621521   56.003220
H   64.822624   31.044161   29.533495
H   58.677338   79.141464    1.846988
H   89.743820   31.178665   23.154625
H   82.781242   45.757713   12.308566
H   68.974617   84.407249   96.413620
H    2.345508   51.745487   13.792339
H   84.662590   86.562935   45.829391
H   40.899891   90.184494   71.447220
H   53.773140   90.266556   24.890158
H   26.563866   15.065494    8.288756
H   38.481583   63.046085   97.801292
H   49.153545   59.753952   83.237236
H   65.509224   34.676392   10.023270
H   45.061710   17.811607   82.989876
H   58.829716   76.587486   10.947354
H   31.170860   58.617805   18.838007
H   49.551979   63.976173    1.211407
H   81.758942   83.149246   16.322615
H    0.266188   58.538918    7.433196
H   12.079363   35.965786   11.074570
H   94.254745   53.696098   21.744972
H   44.892059   94.600410   36.853458
H   49.406799   99.279579   71.935349
H   18.739067   68.229469   61.809101
H   22.059500   71.031799   92.195656
H   99.155830   33.820335    3.539421
H   47.706444   82.334976   63.589516
H   61.883358   86.873055   88.271706
H   49.342274   93.494186   38.355659
H   56.306492    8.315111   46.292080
H    1.746655   28.427399   94.371140
H   52.232128   49.866520   95.819298
H   43.448795   48.385063   66.659927
H   66.172142   47.191914   91.607285
H   34.933685   29.291443   29.922760
H   47.605129   86.712440   87.240921
H   40.770126   68.613449   11.064150
H   95.137772   11.211950   49.869598
H   75.875946   53.305702   75.443459
H   32.533875   58.274071   81.203445
H   89.335274   91.837097   15.059166
H   76.135010   24.328032   27.885948
H   38.930553   20.162453   16.468674
H   54.333252   16.254684   38.525154
H   59.427696   21.503815   47.391701
H   29.286146   48.626816   93.038826
H   82.175529   60.530483   12.529664
H   24.187080   79.833626   20.449873
H   86.797043   91.786285   27.702614
H   93.605125   89.368637   26.246664
H   19.500381   59.538177   81.458626
H   55.828575   11.315739   99.088348
H   82.148201    9.942434   47.083683
H   70.403336    9.841206   48.580566
H   25.098518   56.177975   29.542896
H    2.546530   69.898621   28.560783
H   22.729088   30.430838   96.610771
H   55.353863   88.070580   11.417233
H   80.991966   17.685030   13.258511
H   90.989487   68.595222   83.804337
H   21.755587   49.823093   31.693306
H   37.929001   40.549820   12.715589
H   35.460903   42.275555   55.056606
H   35.561733   52.430191   81.751297
H   97.268578   28.220102   49.527622
H   36.571674   19.639139   48.708290
H   91.172211   70.321655   25.997231
H   22.383617   55.191265   29.003853
H   51.040123   12.031502   83.433960
H   76.174286    4.736300   82.686409
H   81.747749   24.239904   17.923851
H   55.290970   57.601822   69.114754
H   75.423225   41.251888   59.986156
H   71.218239   89.969597   57.452751
H   65.871330   65.262802   16.082361
H   68.625740   89.418419   11.504701
H   34.877659   37.225014   44.947502
H   97.662003   46.132561    2.574751
H   62.906937   39.759594   64.955383
H   11.476752   26.931763   35.940521
H   48.879021   42.264416   39.841625
H   17.243271   46.442348   76.715034
