100
TIME:    5.014, STEP:  5014
H   78.246254   62.211983   94.555557
H   62.000679   76.565796   94.254150
H   65.941620   34.630707   64.491249
H   82.318192   26.074089   65.330208
H   50.261108   74.651718   29.753780
H   50.270596   95.776054   75.299919
H   90.186653   99.905899   82.554337
H   25.795784   22.376949   47.825596
H   30.374245    4.217676   84.473686
H   37.820030   88.376976    4.030871
H   33.864960   67.991745   56.774944
H   64.472832   75.016624   36.026558
H   24.113297   58.383949   26.805664
H    6.817864   89.621315   38.808044
H   41.489235   22.156672    9.753201
H   99.920990   73.186234   16.835178
H   20.911201   13.608623   29.832548
H    8.288993   50.852825   25.714510
H   23.363159   88.696228   27.519228
H   57.428917   99.337929   57.709053
H   66.738853   57.058578   21.156059
H   43.077408   50.740143   92.289886
H   18.799904   53.843681   88.893173
H   53.185680   96.810272   34.689598
H   50.254303   88.524063   73.569374
H   23.689680   78.431549   18.924490
H   29.715685   34.050610   99.450478
H    9.475467   90.476288   32.508522
H   20.196007    4.001570   20.157551
H   93.252884   66.743156   81.987434
H   13.387046   71.669937   12.687218
H   82.344307   13.982053   35.092934
H   23.536350    1.634704   49.497673
H   89.954498   14.219459   60.519157
H   56.137070   79.900070   30.045822
H    8.496396   78.146507    3.663262
H   60.706009   20.912403    3.548987
H   56.752567   67.197487   76.264992
H   33.430080   72.170891   58.418335
H   90.930717   42.789551   32.525105
H   92.580765   28.225950   60.473370
H   80.990715   36.888702   38.360355
H   54.429356   93.567413   63.639114
H   59.181530   96.802612   70.977829
H   21.728693   34.064629   85.171776
H   13.399864   58.551197    3.530287
H   80.906540   97.515587   73.596123
H   56.507191   47.012543   78.815849
H   11.596085   17.190685   44.464127
H   31.036327    7.047636   32.978340
H   43.162083   85.573898    6.282483
H   48.803078   98.477264   44.902809
H   12.876695   51.081604   11.663229
H   60.575981   25.395226   53.070030
H   41.573181   98.007088   42.994282
H   99.839859    7.259481   21.938416
H   14.118428   44.869987   32.860664
H   52.702530    3.376943   84.405624
H   85.720299   50.623108   26.555149
H   28.146694   13.180211   21.000496
H   75.987488   45.397243   23.465309
H   20.959158   81.272476   68.488312
H   14.460378   65.136765   89.645416
H   87.342079   69.076538   91.008484
H   31.336008   60.385242   62.501087
H   93.328178   93.012383   42.650139
H   85.285614   21.710133    9.137733
H   34.014610    4.292743    5.900794
H    6.798073   89.512276   45.763954
H   31.970270    0.331085   91.175079
H   62.815514   54.247620    2.000093
H   60.538925   85.119934   23.722996
H   80.068939   70.292030   33.189552
H   19.831615   32.083241    5.239145
H    3.917223   35.788158   81.493011
H   44.193443   28.922701   58.549801
H   22.193304   91.966011   79.723640
H   67.547165   22.866833   91.343727
H    1.953800   38.791027   73.626335
H   53.629181   35.880177   88.960724
H    8.988150   81.153793   79.664162
H   17.531464   76.972794   67.509911
H   35.021614   90.971130    7.451196
H   95.105347   41.218185    5.466199
H    8.188640   35.256416   61.701332
H   35.894672   93.226570   89.970474
H    2.028449   38.794281   62.630402
H   36.663071    3.861991   43.599998
H   59.738388   15.000971   87.182747
H   23.033396    2.984367    3.456898
H   29.216240   44.172909   39.348309
H   49.284122   72.580093   29.065008
H    6.860578   77.967354    6.744892
H   31.849960   17.368422   64.885475
H   69.901924    0.605201   31.301479
H    8.057479   97.734894    8.469349
H   64.614586   55.423809   48.829361
H   25.269979   58.928894   75.799599
H   69.857727   58.463680   25.061813
H   50.648884   49.965061   14.725715
