100
TIME:    3.424, STEP:  3424
H   85.771393    8.023108   96.011246
H    6.024934   90.388443   93.984940
H   38.610207   20.240147   83.148323
H   82.051315   91.580620   52.482952
H   64.502594   47.206203   72.866104
H   74.927010   97.498619   17.835943
H   73.517387   92.541985   58.214195
H   50.766647   84.821426   93.813225
H   69.459480   57.089767   84.558571
H   81.272331   65.546928   41.770874
H   81.762894    4.014714    9.932821
H   25.155777   95.318283   49.204704
H   25.462109   54.550659   84.811119
H   85.544762   94.522133   17.807583
H   22.149750   64.181808   86.183937
H   63.852875   12.253611   48.819679
H   48.769478    8.442519   85.088577
H   74.310753   28.191689   80.839539
H   98.598381   21.993799   43.751163
H    0.272733   33.103741   49.454460
H   61.091705   15.346947   64.306702
H   90.642563   48.629395   27.693024
H   40.028694   66.775047   34.386642
H    0.914783   77.747192   52.778301
H    7.122779   14.618523   61.826820
H   30.958166   25.586210   68.238655
H   66.824478    0.144381   67.910561
H   43.634495   16.260437   79.951591
H   85.622086   59.743973   95.318642
H   32.283798    6.095717   55.586609
H   50.812237   29.092516   38.482964
H   81.950722   57.907593   82.287239
H   11.538986   17.966133    6.257916
H   22.773643   59.933571   27.502743
H   95.659012    0.091823   33.225883
H   70.259819   53.458965    8.867887
H    8.205506   79.141098   78.263176
H   22.472137   96.286995   64.062263
H    0.542928    6.815081   12.501333
H   40.690868   91.639664    7.427038
H    1.246173   73.667984   23.013655
H   23.891563   65.531219   63.663589
H   40.733753   84.032654   48.792248
H   60.713409   70.157074   15.514861
H   59.648067   96.799011   49.111996
H   33.913326   28.224354   97.071266
H   68.484665   11.046224   58.331154
H   56.422276   30.636553   80.435661
H   65.113876   48.873215    7.888446
H   97.689781   82.855415   44.184811
H   43.283390   39.078735   89.518936
H   71.532791   46.017868   49.283527
H   79.901527   41.862244    4.008232
H   97.403770   51.342873   82.908600
H   68.169266   58.655190   29.469645
H   97.850418    8.932852   76.065765
H   13.319295   90.748436   81.638283
H   71.098137   53.533203   25.361641
H   60.319275   83.440750   48.621326
H   33.070061   90.967590   66.223885
H   75.689095   19.340919   47.433216
H   77.390160   96.071976   40.429863
H    6.515214   73.635429   98.676506
H   78.160027   60.420212   34.179249
H   68.228722   87.374825   14.431275
H   91.003548   72.055672   48.637405
H   12.854443   66.736694   32.373821
H   43.846748   13.359248   29.889601
H   27.553642    3.759516   45.485912
H   99.757141   20.359495   94.523163
H   13.304441   62.430885   21.075279
H   91.642868   37.889343    7.310553
H   83.740005   48.940182   73.958000
H   54.838650   32.701561   99.712242
H   27.256792   33.519711   60.960484
H    6.600992   27.018560   65.536469
H   77.832436   29.776764   51.604588
H   92.846069   26.833178    3.533457
H   25.706327   43.461361   55.885651
H   31.606026   22.474922   25.940445
H   77.881943   64.704514   84.633530
H   98.230270   66.588882    0.464256
H   34.435345   64.409912   56.018955
H   85.715683    5.157804   50.686722
H   85.608566   34.711483   15.833889
H   72.490295   34.823143   79.556091
H   95.835930   54.400230   86.812775
H   11.072176   31.160492   60.134193
H   26.741817    3.529810    0.186962
H   63.611965   68.404617   46.616440
H   64.146790   58.316441    5.770425
H   31.634439   53.009193   98.768364
H    4.939612   30.254011   83.787621
H   78.170723   20.923153   57.680275
H   97.390175   43.028973   94.767570
H   76.729935   60.521126   90.594719
H   90.821625   64.176933   40.272453
H   19.435095   45.390991    1.249451
H   45.601891   51.609814   58.241898
H   51.887760   90.768684   67.895767
