100
TIME:    9.859, STEP:  9859
H   50.597809   17.904617   90.119827
H   28.194237   39.109325   99.745781
H   49.238003   83.200142    7.609892
H   83.131409   26.460356   99.756363
H    6.854177   62.999313   98.388756
H   75.136108   90.527107   55.116219
H   36.259998   27.064981   61.439816
H   44.988342   41.530331    2.972393
H   11.274834   38.389374   79.499123
H    5.472437   57.945637   93.740456
H   83.194794   62.939346   90.078041
H   79.551262   17.870857   91.155052
H   15.074068   65.235390   45.347321
H   66.922821   74.687691    7.513569
H    0.353454   89.378357   76.779808
H    5.113132   49.424789   14.657498
H   31.304970   34.066856   70.892014
H   11.896140   15.099775   57.763657
H   98.826706   91.949509   82.780823
H   26.897366   96.446259   87.579185
H   79.229187   74.724007   89.652054
H    7.572281   57.171951   79.693375
H   54.110344   14.447487   50.273407
H    3.014233   54.770477   74.859985
H   76.970322    4.291679    9.346294
H    1.118416   35.460190   63.107006
H   11.926006   32.649410   95.581406
H    0.668447   16.624500   92.657646
H   25.545727   43.577366   91.132370
H   79.031166   46.829361   67.150826
H    4.068267    6.131862   29.366394
H   88.260696   80.116959   86.567085
H   64.813515   47.150742   85.973534
H   94.667786   70.204185   56.407158
H   35.592613   13.205299   24.882421
H   29.662947   57.634495   88.431984
H   25.405712   43.477791   85.316055
H   56.499561   78.531700   18.163788
H   28.920132   66.606102   88.902397
H   34.586063   89.216049   13.719857
H   61.458557   94.469894   74.618248
H   69.350868   80.269577   83.270988
H   96.133698   22.630989   13.599045
H   49.821827   78.132179   44.693378
H    1.439034   42.885441   99.762436
H   50.868843   50.956158   23.214632
H   18.771778   61.008549   20.108492
H   56.789364   96.914505   78.596237
H   53.216408   15.928417   51.195641
H   32.723198   80.802147   94.191414
H   46.178562   18.072594   52.205353
H   84.276184   48.897469   26.854048
H   13.368111   79.174561   30.276657
H   48.377129   46.347031   66.866707
H   55.806770   22.600187   84.191483
H    5.875132    2.163013   57.003159
H   21.270203    5.068947   93.660301
H   91.934769   45.826408   59.610130
H   67.839500   55.350334   54.610371
H    8.427374   85.583603   83.197182
H   81.617523   20.082399   45.717731
H   49.002739   36.175888   49.267845
H   43.410221   34.558380   57.425827
H   20.039589   95.469131   59.470680
H   23.642841   73.421516   13.694106
H   95.696228   52.153465   29.125879
H   96.561958   89.213409   43.055187
H   99.337029   81.383858   37.519821
H   48.274261   41.381470   41.894009
H   30.256134   43.835575   80.932846
H    8.955650   24.589626   43.891518
H   61.401390   24.243553   78.705841
H   64.167221   30.643858    8.962803
H   13.176716   25.444538   17.365328
H   37.388023   42.832104   48.817554
H   58.733505   39.442265   32.544022
H   62.190376   72.479416   65.596977
H   95.165779    6.073832   58.927177
H   34.288116   24.559727   27.684542
H   16.031143   71.952675   71.559608
H    3.821691   31.278238   69.242439
H   81.106834    8.416062   62.198769
H   41.476974   71.995644   68.865128
H   28.432903   55.815384   62.949059
H   72.280579   32.180321   92.034897
H   24.385288   71.193214   26.422245
H   25.615236   86.522224   93.658257
H   14.587543   16.150465   93.360489
H   60.287113   45.238564   47.556892
H   94.670532    3.648613   76.650833
H   27.494223    5.788209   41.666161
H    7.765062   36.970093   21.379877
H   17.434254   23.333540   81.416191
H   96.742470   11.052644   96.729240
H   86.133911   66.621407   42.634193
H    8.234618    6.411595   58.218765
H   80.041435   33.465363   70.187866
H   19.247156   74.282852   80.954857
H   39.052879   79.375740   19.242664
H   51.590897   25.637615   47.991665
