100
TIME:    7.900, STEP:  7900
H   83.077629   97.553673   91.913345
H   82.298172   32.953503   76.226273
H   15.564699   42.261185   30.605652
H   82.802597    7.169849    7.136101
H   24.408236    5.977110   51.503387
H    5.508412   92.649437   61.110382
H   38.931095   94.782806    8.243458
H   98.961868   72.051598   82.842155
H   59.430794   26.740498    2.809596
H   58.982765   29.817293   17.036209
H   65.416275   84.116348   78.781097
H   54.321930   19.676525   30.597923
H   39.993019   83.809250   40.026615
H   63.920403   80.725868   58.434643
H   76.559395   64.365891   70.989288
H   83.880951   20.766235   77.271759
H   88.835945    4.495313   92.556519
H   70.003830   10.424963   25.673306
H   68.307007    9.766629   79.564087
H   79.676071   38.047939   54.201332
H   95.479530   69.748047   42.823421
H   19.761034   54.571350   46.520294
H   80.265816   30.372797    6.321273
H   85.034210   31.335176   20.350803
H   47.034492   59.651726   94.883217
H   10.358212   93.211472   47.457619
H   80.853500   14.082681   56.719051
H   65.961662   25.184988   27.903784
H   82.948540   65.841782   83.735252
H    3.914844   95.314133   11.416119
H   26.969606   30.464252   84.356224
H   64.568108   34.242687   67.921501
H   26.821955   90.481148    9.491345
H   11.895297   49.734810   38.936127
H   84.346413   61.529167    5.693415
H   59.371113    4.190473   94.589729
H   37.511898   15.220053   30.954313
H   37.470848   14.376768   79.922096
H   11.609380    9.290224   78.743797
H   19.102093   72.612396   59.591125
H   95.343002   27.251028   28.465055
H   34.445061   72.583008   83.268883
H   79.274628   10.877602   72.097878
H   74.901199   45.243553   53.154926
H   71.388527   20.199619   32.134796
H   76.149681   13.594878   15.255896
H    3.455518   54.467232    1.296141
H   56.669796   76.737427   57.384777
H   95.957039   78.171761   29.339222
H   91.602295   50.976490   31.164009
H   42.959141    6.949251   36.704407
H   89.068222   30.677107   55.451080
H   72.741310   67.815613   44.051796
H   93.747986   78.309799   80.421890
H   11.784966   50.923637   67.541656
H    3.435199    4.223690   23.692154
H   97.078430   61.595284    7.343186
H   37.805099   30.830191   10.068587
H   13.330307   72.572197    5.002815
H   37.700027   35.008610   38.915794
H   58.038799   11.185516   98.450600
H   18.531502   54.409988   37.904350
H   10.391124   68.201202   91.743744
H   85.518852   84.797699   12.652705
H   45.888046   29.884108   31.261980
H   16.038712   49.540886   13.293923
H   53.736877   21.486431   48.474590
H   34.658836   69.346733   43.868286
H   50.638153   82.142723   64.760010
H   90.469643   45.440090   85.087830
H   71.171715   57.886353   67.386604
H   22.721893   89.288475   35.113163
H   91.895950   27.546305   59.196255
H   56.295879   49.428028   33.761780
H   43.021606   39.947529    0.285121
H   12.416192   13.888294   64.358223
H   84.271202   42.035851   30.848497
H    3.136373   34.160946   50.728092
H   40.346359   30.313931    5.820307
H   12.102090   78.668816   40.329079
H   65.470650   11.011483   52.155121
H   34.106354   95.703262   26.090538
H   17.566858   39.234043   82.299271
H   93.656929   88.179077   41.873943
H   67.665848   54.727291   81.936668
H   69.475510   99.233276   90.383072
H   94.777916   28.958122    0.245738
H   83.082756   72.908997   13.667252
H   19.631763   54.312675   63.578987
H   67.873535   84.248550    6.623954
H   47.323261    0.009682    0.295344
H   62.818897   89.635178   84.053062
H   91.858826   64.560051   29.923708
H   10.770746   92.456749   59.483639
H   20.005508   42.096138   97.620880
H   46.429214   83.769958   59.403664
H   35.537132   21.043995   82.852287
H   23.028490   77.350731   20.288828
H   32.375114   70.916313   83.329567
H   29.910723   75.905441   36.708317
