200
TIME:    0.449, STEP:   449
H   15.893377   61.781368   18.913347
H   29.827110   35.929325   98.381744
H   13.757185   78.286049   55.642570
H   24.887598   79.416603   39.034397
H   12.991137   89.026321   50.653584
H   82.819458   47.142406   59.363201
H    6.387259   55.155838   53.696720
H    7.572200   97.911499   17.653717
H   95.916229   84.372948   42.620865
H    3.504036   71.971306   87.828667
H   19.478453   99.058907   99.566269
H   31.642044   47.601353   22.700665
H   16.303822   93.944145   52.725792
H   94.525131   54.088718   52.336941
H    9.531328   73.553482   42.464352
H   23.208435   17.355034   49.814434
H   94.039368   17.507002    5.284773
H   31.599195   93.214256   39.799500
H   71.979225   22.135408   45.560505
H   90.721176   76.834496   29.368847
H   60.593292   87.191353   16.265240
H   85.376152   56.803032   62.520653
H   88.746628   61.021858   44.121368
H   13.035083   89.964661   90.930725
H   12.330723   21.109682   37.952671
H   18.488085   71.611595    0.053770
H    2.943095   62.990406   57.485107
H   99.306671   78.751129    1.281209
H   19.871269   50.177071   37.114552
H   83.604942   26.363186   91.396240
H   13.088626   60.180973   16.450338
H   28.125458   68.404770   98.748718
H   22.073380   13.482749   75.732018
H   89.509422   63.805939   41.943398
H   37.958759   81.164963   32.629330
H   26.234219   45.156658   81.873077
H   92.263138   69.918037   87.523964
H   22.577047   50.161613    5.770399
H   45.335121   38.916626   49.077335
H   88.078407   38.829029   55.532318
H   80.566498   95.460594    8.461449
H   23.742113   38.724285   33.633945
H   72.938736   82.980759   58.088924
H   36.815659   73.384758   26.223156
H   35.917988   82.671730   51.906105
H   38.118656    8.399310   44.960899
H   83.912674   15.972819    0.761609
H   85.027634   65.547417   40.134171
H   95.163109   20.820904   61.317017
H   54.638191   18.744677   96.870354
H   73.236450   67.850769   19.585876
H   13.148728   39.295269   68.035149
H   57.812969   88.441895   10.661862
H   19.296038   86.594208   84.798172
H   68.352371   71.736839   84.014084
H    2.626423   67.201279   85.492004
H    4.834025   17.536354   47.412663
H   69.692062   63.437969    1.531245
H   23.771053   78.514847   12.181387
H   38.269432   94.815590   63.130653
H   49.742634   11.298759   36.130199
H   93.692284   16.919989   50.668045
H   77.205208   29.536053   77.833847
H   29.189909   65.450516    8.333843
H   74.708076   79.194809   26.475956
H   30.541283   24.680939   36.620041
H   78.368263   18.753473   90.153145
H   96.171028   91.925102   91.409393
H   23.956646    8.677583   59.334457
H   44.033882   45.272720   50.971432
H   58.373478   80.206963   78.871811
H   26.266600   18.328232   43.301834
H   84.127090   29.276333   92.497307
H   14.674263    4.370733   66.656960
H   81.689926    4.254803   57.785545
H   58.596481   11.697969   61.511745
H   94.544205   37.730770   69.189293
H   18.814131    9.775715   40.820793
H   13.119522   39.004860   30.309498
H   65.126869   89.501335   84.349945
H   52.238544   26.569736   98.030899
H   35.826378   64.831909   81.396141
H   10.184303   15.958856   84.164642
H   17.858589   68.693810    0.663396
H   31.465687    1.533930   51.859264
H   30.555464   78.461746   23.432110
H   45.222363    3.219619    2.250472
H   73.593437   10.765628   19.325212
H   72.082687   72.565956   77.923523
H   22.397312   95.415100   52.566174
H   32.481602   36.697021   79.824867
H   82.599609   90.369186    2.928185
H   57.188118   14.504965   89.777397
H   50.655937   86.924942   74.843430
H   30.420778   54.099075   76.644394
H   60.616890   32.382107   19.234909
H   82.140694    7.050297    7.330324
H    1.149155   31.686396   50.572399
H   32.282112   67.684395   53.621914
H   70.838394    1.323562   27.301432
H   19.191008   86.205017   78.781319
H   98.344109   79.818550   64.711746
H   27.511770   29.531960   33.423454
H   31.918736   68.325363   98.461967
H   25.061687   24.726131   31.863548
H   95.697189   16.540298   34.105854
H   75.558823   32.691902   55.286560
H   63.519897   42.298916   10.659928
H   78.107986   37.451481    9.238804
H   11.080558   25.146360    6.560164
H   49.944332   94.250595    0.942898
H   94.386040   68.601013   92.891815
H   53.464062   82.699959   89.389328
H   62.516197   14.891565   69.564423
H   56.875725   90.671585   19.444536
H    5.509081   99.683098   88.362923
H   23.981945   11.385639   86.616562
H   39.710743   37.283676   29.800804
H   26.799580   65.560356   73.210205
H   76.298157   50.846188   57.139278
H   42.735909   23.148281   80.671265
H    9.271156   22.528973   54.335926
H   37.275154   13.007863   30.229134
H    0.998008   59.797810    8.712764
H   70.662575    3.777324   85.900787
H   55.379345   68.070694   21.495995
H   90.191612   50.165787   62.983185
H   70.857117   89.209160   36.767735
H   95.039719   44.918358   80.127365
H   77.875328   23.158735   70.062225
H   57.045685   77.723236   11.398411
H   73.677856   88.124283   14.255719
H   91.755287   92.763138   98.929832
H   90.672432   18.361603   52.279682
H   14.750917   97.591080   46.812950
H   56.791527    1.358618   80.602539
H   69.238731   87.097099   65.743057
H   93.001045   57.695282   79.896072
H   51.776138   47.256432   71.500656
H   43.561157   99.066078   89.650162
H   60.964649   56.922497   21.661209
H   47.616821   47.361095   51.119019
H   48.286892   60.607826   92.334770
H   48.136253   18.962236   81.587776
H   50.125919   62.835594   55.902760
H   53.597927   65.576660   19.836422
H   49.674339   95.862526   45.785416
H   36.945572   65.638916   67.625877
H   70.772552   56.066212   95.866768
H   16.124186   90.956589   82.175697
H   68.853432   64.859406   49.766396
H   42.585262    1.326768   41.602741
H   85.884926   24.023731   96.127754
H   15.434785    5.940029   70.787796
H   21.900177   59.398552   64.534561
H   69.706467   44.047131   60.490955
H   61.498974   67.151344   83.230515
H   49.017498   33.306572   14.620577
H    2.816282    0.946828   94.854034
H   61.336494   48.416199   86.261627
H   56.008923   75.918442   77.858902
H   33.791286   21.973207   33.733372
H   74.215767   25.457640   37.145149
H   18.946304   26.319450   62.256748
H   56.953033   29.180094   11.878118
H   15.514573   57.789253   61.159332
H   71.300949   94.186531   54.437317
H   23.814789   40.441624   56.655140
H   96.912842   27.490536   36.363422
H   36.010715    8.882511   88.049805
H   75.372253    8.119313   35.958534
H   38.942848   57.684223   58.099918
H   41.711124   68.473770   84.543350
H   68.652344   69.538757   79.088280
H   61.723907   93.464325   89.404251
H    7.360118   48.789787   23.487259
H   33.270691   59.450008   95.650848
H    3.582313    9.400177   67.552658
H   70.256660   16.520990   66.690407
H   76.358551   56.697029   89.333313
H   77.602074   92.678986   36.859928
H   23.443241   30.361172   77.246056
H   56.012741   89.948311   10.207146
H   56.032261   25.607162   84.879173
H   88.225716   79.269402   77.535782
H    3.635771   37.987335   85.000221
H   38.629486    0.944561    3.896079
H   80.380211   76.077461   32.839565
H    0.565888   62.105415   68.932037
H   53.414165   57.136402   68.343582
H   57.804504   24.109608   77.808968
H   45.939579   90.608963   21.962297
H    8.742868   22.496210   62.593830
H   31.452122   71.872185   37.525269
H   77.722351   44.920082   21.132624
H   75.838394   10.896291   26.702971
H   10.850526   91.258308   10.521039
H   22.835476   93.252396   41.072483
H    9.126247   12.196693   68.669853
H    5.827896   27.911940   94.845131
