200
TIME:    0.830, STEP:   830
H   27.600515   60.516911   25.428211
H   33.222717   41.491486   13.849236
H    5.771793   94.962357   74.408867
H   37.730240   83.869820   29.071342
H    8.945962   98.682709   45.175720
H   70.424866   36.801468   48.086273
H   11.907271   54.885506   61.071270
H   16.110197   14.362739    4.130100
H   11.388494   78.661087   33.326374
H   90.092087   66.633827   72.800514
H   32.758167    7.197588   11.606224
H   33.217529   57.770790   40.854706
H   25.654995    6.589385   37.110466
H   76.517509   55.696178   70.696281
H   91.136856   76.486443   41.526909
H   12.103136    1.656877   41.595459
H   11.961740   35.350979   86.786110
H   22.552509   11.530681   33.016483
H   84.655777    8.342121   51.169174
H   91.933311   71.602257   14.599364
H   65.165688    6.210360   98.810226
H   76.894112   71.366096   47.838409
H   77.337440   58.251678   34.979485
H   21.105083   93.438286   89.736031
H   28.890839   36.432877   24.357571
H   18.172697   88.520447   87.470238
H   10.321530   70.635292   72.803940
H    8.051023   94.468193    2.283724
H   35.918255   38.596382   34.883583
H   66.387970   36.570011   78.216812
H   12.591200   76.098610   16.916153
H   21.197102   77.334457    8.129391
H   12.867546   21.680761   80.385803
H   76.899727   64.221611   48.602875
H   19.674501   65.421738   29.730680
H   13.788692   36.469688   86.241997
H    3.198391   61.694702   90.384254
H    3.731345   60.017117   88.640366
H   31.234238   25.273922   57.546295
H   84.424561   37.262264   40.649506
H   80.679863   77.662262   21.107697
H   42.706070   30.734831   22.336048
H   66.078690   74.228386   72.236320
H   35.966873   91.889442   39.849087
H   48.936089   94.296021   65.655266
H   32.757065   98.483879   49.104542
H   91.092468   97.306366    9.114448
H   75.752037   65.541603   26.437332
H    9.897773    6.362726   61.591709
H   41.003849   20.464048   80.752151
H   64.173050   63.028389    4.486742
H   98.584679   45.853008   76.226509
H   68.090538   77.549858   15.637843
H   13.625446   94.634415   90.440269
H   52.225449   63.263519   71.692162
H   97.742607   57.814262   97.967987
H    3.746722   18.978127   43.325703
H   73.854599   72.294983   94.653954
H   15.731573   85.874863   21.396091
H   29.457470   92.676186   56.087479
H   48.508698    3.865349   24.998154
H    0.540597   17.822550   53.589378
H   87.701660   37.428238   64.979980
H   38.421684   65.994087   16.840591
H   80.832703   84.874695   42.056141
H   15.595258   39.482719   43.468460
H   64.136574   10.716660   98.024757
H   94.037437   92.791328   98.952538
H   37.508575   13.826251   54.512077
H   41.840702   51.913303   50.951084
H   58.206337   86.796677   89.063049
H   15.558678    8.313861   40.634846
H   96.219376   35.863140   79.739365
H   27.086985   95.996162   77.749306
H   86.329178   10.422305   39.870941
H   68.226707   98.247154   59.022072
H   92.933838   51.914497   63.800030
H    4.702596   16.713518   27.792519
H   16.018583   55.976158   21.862764
H   59.384769   87.376465   66.281281
H   68.409065   20.130449   92.374268
H   52.579716   57.979305   69.617790
H    8.697839   20.138105   73.017067
H    5.434240   81.152351   13.080791
H   17.898201    5.562880   41.061958
H   41.288918   65.131165   15.500931
H   62.298355    4.013538    3.123965
H   70.425026   96.585449   33.695618
H   83.744766   73.493225   79.295532
H   20.488998   12.493340   48.374569
H   16.510899   39.986065   78.130203
H   79.945702   93.712006   11.241520
H   75.288208   10.207989   78.926315
H   33.571224   73.236824   85.305000
H   40.074379   48.945320   92.512611
H   44.838783   40.900482    1.321238
H   87.308983   93.871574   23.739021
H   93.652687   38.116199   54.791618
H   23.648918   63.867767   54.972122
H   77.462990    7.514131   27.394449
H   36.189968   96.739258   96.722084
H   12.510894   85.582733   62.610130
H   35.409546   15.607675   38.747257
H   50.225761   69.028809   13.592528
H   24.556631   19.719170   44.215992
H   10.781179   97.886719   16.267637
H   90.630241   36.912678   52.901524
H   61.274395   56.927383   95.927559
H   87.790535   32.642181   27.662098
H   23.319635   19.834185    8.424875
H   54.957108   90.939751    1.210959
H    9.683859   78.181824   97.231667
H   46.846733   87.121201   81.102043
H   61.225578    6.677707   59.740074
H   44.161385    6.536726    6.085343
H   89.960503   88.538429    5.550986
H    8.317025   16.750551   91.058151
H   37.777721   56.036892   22.184990
H   41.268433   79.864716   54.380703
H   86.352776   58.450375   71.352829
H   46.712410   25.680103   68.186562
H   92.832474   13.503361   65.542892
H   46.460640   96.938797   41.532108
H   95.384903   46.087891   92.028008
H   59.262108   94.344429   73.299812
H   69.337601   78.494766   14.139637
H   80.721260   51.944748   48.268967
H   62.523323   92.197350   39.985561
H   99.728386   31.127048   71.444756
H   96.342224   21.352886   76.553108
H   72.425560   64.119415   25.958569
H   59.053749   91.903122   23.240635
H   90.511177   11.299353    1.764548
H   71.990433   28.129902   56.968349
H   33.572468   90.701965   29.305298
H   46.643890    0.869640   74.989510
H   69.869507   88.067970   84.709923
H   96.250847   45.799206   73.876091
H   61.734833   52.584595   71.410545
H   43.767540   80.793938   79.063599
H   79.826874   45.718239   33.968597
H   30.077274   58.937424   60.000744
H   36.039093   67.619728   79.483810
H   30.678017    5.170641   87.901344
H   68.034714   50.199738   68.361298
H   67.558205   72.140213    1.588925
H   58.685417   94.194023   43.057384
H   26.542137   51.456642   65.439964
H   80.957977   40.158752   92.079208
H   28.269520   95.116219   67.917847
H   55.424950   71.329941   46.890118
H   58.623528   90.783913   29.663063
H    3.584482    9.777508   82.753571
H   25.506138   14.685455   61.372265
H   37.008266   69.461227   71.426582
H   81.016823   44.991840   72.213638
H   65.487106   78.577972   87.741867
H   54.434319   27.193573   23.546631
H   85.378426   99.511124   80.724083
H   57.064953   32.870636    0.882759
H   59.751427   60.439735   67.728706
H   15.902189   19.998764   30.432701
H   90.615929    8.846008   36.986729
H   32.931595   37.512081   45.956871
H   53.305000   42.108086   15.621712
H   22.078854   45.666447   59.076611
H   64.740303   88.024117   58.476315
H   24.147617   57.776321   72.409988
H    2.090285   26.251513   35.463768
H   53.397736    6.007323   83.759369
H   68.093628   12.650287   35.926559
H   25.780516   43.532471   59.269905
H   49.072594   52.101620   73.823074
H   63.960754   60.426514   87.927856
H   44.015686   90.598221   71.489647
H   19.120781   50.850906   23.861076
H   29.356686   71.352798   11.587791
H    6.959095    9.763527   72.424454
H   60.512547    7.663630   62.234859
H   58.235123   60.783989   94.707985
H   70.646103    6.332617   28.001785
H   31.128092   30.826260   91.155090
H   38.468754   89.544266   17.756104
H   64.329659   26.312061   98.895760
H   93.152740   62.744247   75.966110
H   11.611765   41.202255   86.907082
H   51.896118   94.418724   12.338152
H   62.076096   92.216011   46.171600
H   89.531715   63.804440   73.286423
H   60.342522   55.063854   73.157242
H   76.004471   11.504272   75.088203
H   42.816223    0.963022   17.109396
H   17.205704   31.560337   71.322716
H   24.796278   87.077652   45.203579
H   64.647568   27.902401   19.886333
H   76.768570   11.831190   21.483086
H   13.383075    1.647369   23.380720
H   11.762611   85.680183   30.327499
H    4.045526   13.262762   51.630196
H    1.854070   15.003599   89.551849
