100
TIME:    1.280, STEP:  1280
H   30.760729    4.638850   97.974136
H   65.664711   74.145714   58.742245
H    1.757182   65.992378    8.310570
H   81.691452   79.913658   70.003410
H   83.706207   75.355171   30.998314
H    8.167702   99.821373    5.507933
H   85.885445   47.770084   90.550438
H   19.280823   99.338974   90.668419
H   22.163155   63.226608   19.515268
H   39.860146   34.762260   57.815407
H   81.192551   17.745808   16.453737
H    6.984722   87.850624    1.817735
H   61.840195   84.265495   97.907738
H   91.703819    1.130801   54.649570
H   96.069557   55.690258   89.243820
H   50.058533   99.777519   26.789536
H   21.156940   66.645432   89.896614
H   28.497299   32.454407   55.171188
H   65.196526   32.051056   30.797838
H   58.030792   78.631699    3.480999
H   88.319626   28.789322   22.503227
H   85.082512   45.789391   10.264972
H   68.654182   84.212059   95.726974
H    0.115627   52.033329   12.009853
H   83.804192   84.659370   46.006454
H   40.789845   89.469284   69.197586
H   51.703499   89.268997   25.366415
H   24.538902   16.185772    9.082061
H   39.003433   65.223572   96.666771
H   50.073833   59.159958   85.145195
H   66.453316   36.828613    8.124191
H   46.577091   17.148582   80.768074
H   60.520329   74.831505   13.109464
H   32.184898   56.418343   17.826990
H   48.955421   62.161964    2.672775
H   83.845612   85.034500   16.240034
H    2.568075   57.660011    9.324264
H   11.087435   35.526516   12.768158
H   93.175888   53.183769   19.444618
H   42.631622   92.353706   38.741825
H   47.766724    0.103174   72.500778
H   16.582085   69.306496   62.936665
H   22.266226   71.175720   93.929298
H   97.623238   34.222618    5.886009
H   45.624718   81.387955   65.643265
H   61.573727   87.330818   88.369118
H   49.595692   94.788742   38.560738
H   56.307774    8.562212   47.777065
H    2.448145   26.439789   93.413864
H   52.735485   50.231815   94.140587
H   43.446964   46.068047   66.912979
H   67.338524   44.964802   90.031845
H   35.431549   29.430603   28.528870
H   47.049404   86.320961   88.300003
H   38.859421   70.717331   11.267809
H   95.167801   11.186728   49.052582
H   77.397552   52.613197   77.726051
H   30.746700   56.007591   80.585281
H   91.228218   92.851135   13.216667
H   74.551147   26.172819   27.203331
H   40.444469   19.046425   14.597485
H   53.481445   16.031296   37.439156
H   61.055687   19.867126   45.745216
H   30.934187   48.757370   92.387337
H   83.128044   58.613552   14.764741
H   22.712715   78.640511   21.868940
H   84.871506   92.616119   28.861397
H   91.947289   90.741196   27.394003
H   20.696609   57.813690   79.953499
H   56.314720   12.522907   99.037811
H   81.386116    8.309408   46.795841
H   68.424332    9.044651   50.337830
H   23.533607   54.990902   28.927479
H    2.018305   68.379944   27.134392
H   23.886223   30.464987   98.430107
H   55.921307   89.608665    9.802381
H   83.170921   15.604860   13.683178
H   92.117050   67.026009   85.129654
H   22.906038   49.752781   31.960915
H   36.751999   39.242630   10.648007
H   35.930569   42.523846   56.491055
H   37.362576   52.586929   79.744461
H   98.787254   28.620646   51.813511
H   38.222736   21.692850   46.516151
H   90.003632   68.820557   23.670692
H   21.831188   56.072918   30.670479
H   52.643028   10.286507   84.578369
H   76.560638    2.814837   82.437019
H   82.245796   22.903692   17.727470
H   53.169144   56.614334   69.972786
H   76.405403   42.547726   60.492992
H   72.993996   91.774651   57.909966
H   67.411247   65.982040   17.939142
H   70.945320   90.874107   13.122895
H   34.462742   35.075172   45.499016
H   99.644302   45.184807    1.335093
H   61.001907   41.136913   63.575134
H   11.564872   27.136108   35.556549
H   47.735710   42.367870   37.831310
H   18.733749   45.825832   74.403511
