100
TIME:    8.715, STEP:  8715
H   27.961891   22.814219   91.167191
H   59.789169   77.117798   27.613224
H   29.573755    0.896473   21.039326
H   82.939392   73.592216   62.465431
H   17.105246   71.302933   29.405136
H   92.871460   91.766487   41.821686
H   96.217506   49.817314   71.977516
H   34.904480   42.559765    8.010779
H   39.396538   48.380997   51.509747
H   36.722481   41.519489   48.948219
H   89.606964   16.909161    0.276913
H   23.213493   60.528500   72.585930
H   88.022949   34.479706   59.033798
H   23.566515   78.213814   20.455128
H   86.458382   91.566078   31.796402
H   51.112320   49.483238    9.619509
H   23.298683   58.399059   66.749184
H   87.426926   70.767097   97.422440
H   81.004074   43.959171   22.502148
H   57.716030   20.741343    9.690271
H   47.116264   88.611298   20.704561
H   97.895882   55.653275   77.115540
H   69.384392   23.747564   83.003510
H    9.308374   41.084930   59.823421
H   17.886219   95.016541    0.901763
H    6.514811   69.185287   70.762527
H   10.574373   80.205460   72.888535
H   97.195770   63.226444   54.845718
H    0.669755   39.784695   45.208794
H   35.164101   75.143082   76.206238
H   59.047558    3.547125   19.876015
H   16.027546   11.727171   92.472893
H   84.229874   30.851006   82.912979
H   46.331970   75.044983    4.602975
H   64.063438   99.822243   55.281330
H   30.217184   68.028488   92.027931
H   15.681237   85.372322   95.173363
H    3.786134   99.461510   37.434258
H   77.209923   91.533348   99.764557
H   42.337753   96.313835   23.712271
H   39.642548   55.213181   47.666103
H   65.761154   75.779037   24.877468
H   86.288483   15.766470   30.966648
H   22.862301   58.928215   32.840878
H    0.694554   88.048836    1.876864
H   65.628899   29.136662   18.566957
H    9.827056   98.788826    9.122904
H   56.719540   85.131668    7.812191
H   19.779335   10.674538   96.828217
H    8.711731   63.381313   74.180626
H   42.903179   28.266811   45.297623
H   28.678385   55.052258    1.950371
H   89.641716   72.541260   96.718613
H   74.870270   65.015808   16.385147
H   46.893898   22.345537   74.468460
H    4.450281    3.366389   95.947617
H   48.744240   38.078972   84.856407
H   77.119080   53.863152   89.075951
H   77.610634    7.008024   42.435341
H   83.918602   97.651184   15.735252
H    9.449160   73.282227   34.905933
H   89.605522   46.824081    1.027658
H   65.723312   12.586810   35.856750
H   41.483402   89.237320   90.526276
H   78.237335   64.792542    7.158599
H   65.972694    9.024949   61.483173
H   88.347397   49.661152   87.821823
H   78.361023   15.957498   82.830002
H   91.255890   23.582008   13.642353
H    7.022079   86.376297   83.359238
H   45.288082    2.430782   57.611977
H   55.607452   62.227928   94.852280
H   38.757294   87.231346   38.297703
H   38.357075   97.848000   85.338264
H   82.281784   41.147594   62.078800
H   31.685350   66.124016    9.520934
H   58.290848   71.495728   45.305000
H   41.422253   80.873055   95.744263
H   79.428673   27.920017   14.915623
H   72.133659   34.272606   70.116203
H   81.425926   19.443033    0.866614
H   95.263138    0.989541   57.906250
H   69.118446   52.863804   59.916523
H   49.726715   57.920753   67.435814
H   27.982849    3.745894    2.932199
H   50.717747   29.169552   46.979324
H   49.209995   69.700661   39.108086
H   96.190208    7.690979    5.216859
H   36.546879    8.935368   56.913338
H   95.815384   50.718864   35.757324
H   80.676384   44.014698   17.506981
H   23.120646   50.930496   99.585518
H   44.101734   89.009056   92.948914
H   89.536453   41.901844   14.437500
H    5.912625   69.093826   16.347975
H   13.744903   51.585815   17.308098
H   70.846672   67.814735   35.981331
H   21.455347   17.678909    3.926275
H   93.550682   74.435677   15.064381
H   80.533142   54.990917   58.197323
