200
TIME:    0.350, STEP:   350
H   12.851272   62.109928   17.220509
H   28.944719   34.484039   94.362740
H   15.832116   73.952835   50.766289
H   21.550449   78.259468   41.623222
H   14.042245   86.517181   52.076965
H   86.040100   49.829422   62.293427
H    4.952926   55.226082   51.780499
H    5.353665   93.636444   21.167797
H   91.895714   85.857132   45.035969
H    6.988993   73.358055   91.733620
H   16.027819   96.944038   96.437775
H   31.232666   44.958900   17.983564
H   13.873988   90.658546   56.783318
H   99.204277   53.671032   47.566402
H   14.311025   72.791374   42.707939
H   26.094097   21.434086   51.950073
H   89.382126   12.870342   10.091377
H   33.950066   88.455048   41.562016
H   68.685318   25.719543   44.103134
H   90.406212   78.194054   33.206577
H   59.405190   82.249359   20.800877
H   87.580147   53.018929   66.335724
H   91.711220   61.741669   46.496819
H   10.938153   89.062065   91.241158
H    8.027627   17.128065   41.485256
H   18.570036   67.217957    3.323507
H    1.025864   61.003941   53.504623
H   97.034698   74.667168    1.020709
H   15.701581   53.186226   37.694252
H   88.078644   23.711103   94.820816
H   13.217878   56.044895   16.329300
H   29.925739   66.084457   96.311333
H   24.465446   11.352491   74.522766
H   92.785957   63.697929   40.212982
H   42.709660   85.255722   33.382374
H   29.468079   47.413902   80.737846
H   89.421661   72.054810   86.780739
H   27.473911   47.600735   10.221630
H   48.999130   42.461674   46.876740
H   89.027832   39.236141   59.399506
H   80.537041    0.085354    5.175418
H   18.814470   40.800255   36.569458
H   74.721268   85.254997   54.412830
H   37.036209   68.576454   22.682451
H   32.535332   79.651245   48.333488
H   39.511826   10.975767   43.884205
H   82.047058   20.823044   98.590965
H   87.437828   65.548927   43.693192
H   91.334442   24.577816   61.245640
H   58.180973   18.297911    1.058612
H   75.591507   69.103828   23.509335
H   16.933138   37.591290   65.906685
H   55.143036   91.274269    9.367303
H   20.769459   84.505020   83.332115
H   72.542831   73.938568   87.215843
H    3.895533   69.640175   82.250214
H    5.116558   17.161720   48.474628
H   68.610458   61.136539    3.318076
H   25.860052   76.602402    9.786960
H   40.559155   95.371498   64.960770
H   50.063263   13.230276   39.022659
H   91.913086   16.685465   49.909191
H   74.477783   27.485197   81.173828
H   26.791233   65.309273    6.123468
H   73.116638   77.718933   22.427683
H   34.424782   20.834711   34.840530
H   82.066261   20.841717   88.107765
H   96.725426   91.700020   89.449364
H   20.435202    7.339740   60.587517
H   44.603764   43.547215   50.976719
H   58.416908   78.494675   76.223694
H   29.048973   20.930464   43.994831
H   80.985001   27.564800   95.812363
H   11.448995    6.546829   63.774723
H   80.484451    2.652224   62.440521
H   56.094139   15.193072   62.158669
H   94.962646   34.045235   70.589638
H   22.480972    7.972979   44.206093
H   12.366856   34.594227   32.502163
H   66.618607   90.053467   89.044952
H   48.036755   28.242937   99.500732
H   31.473171   66.612175   84.456657
H   10.570550   14.872909   87.061256
H   21.086973   65.456551   97.436737
H   34.991096    0.487043   54.664864
H   27.766293   81.925598   25.492973
H   40.785294    3.013325    2.023501
H   74.416725   14.450314   15.591149
H   69.052521   72.324257   77.566612
H   22.893173   90.977654   53.655331
H   36.631653   35.842388   80.265213
H   83.289207   89.500580    0.768038
H   52.485180   15.621502   92.596970
H   55.095272   90.481697   72.125069
H   27.912205   55.438240   72.521156
H   64.716713   30.168671   23.889696
H   80.797752   10.474508    3.066651
H    3.870726   30.148018   49.635059
H   34.525383   68.676117   53.271072
H   69.117043   99.714951   27.277262
H   14.773980   83.467773   74.119545
H   94.662727   78.320770   65.257835
H   25.459593   33.150024   32.040104
H   27.161604   68.142578   94.530579
H   25.192923   26.027153   28.653858
H   91.777885   21.387312   38.740814
H   70.869102   31.462633   55.747299
H   64.103310   38.497818   14.488123
H   75.592049   38.701141    4.451649
H    7.900325   26.526690    6.075633
H   48.641800   95.110893    0.873244
H   90.410843   66.111511   91.764137
H   55.183525   81.551132   91.542717
H   62.851555   17.025883   72.117371
H   60.179451   86.549103   22.915752
H    9.549329    2.579283   83.896774
H   28.052311    9.991620   85.462448
H   40.213024   32.410793   31.779716
H   23.039835   61.843479   78.103104
H   73.685539   48.870296   53.446190
H   41.702644   22.490406   83.915321
H   13.542812   24.874210   51.423828
H   34.888374   17.183285   27.292299
H    2.456622   63.360229   13.048149
H   73.624901    6.228539   89.175056
H   51.752346   65.362152   23.407495
H   92.652412   49.703537   66.806564
H   73.022591   88.432701   35.931606
H   93.821404   48.501926   82.383476
H   73.076843   23.627972   68.375618
H   53.049339   81.258087    7.615063
H   77.477821   87.142380   11.921056
H   92.078560   87.946526   98.193405
H   95.526810   15.823305   51.061195
H    9.860190   99.381165   51.362183
H   59.428314    1.485676   82.061043
H   69.074829   86.844826   60.814659
H   92.156609   60.786388   81.460320
H   49.188446   45.871948   71.524071
H   43.507530    3.814195   92.401001
H   56.063442   59.833839   18.463226
H   52.174362   44.353073   48.811169
H   51.469391   58.785641   95.673996
H   52.672646   22.545805   79.947243
H   45.472454   66.118927   52.665501
H   49.970551   63.871140   24.577881
H   47.332878   96.296074   46.494274
H   39.648827   69.324074   68.193871
H   68.125946   60.199646   96.850937
H   12.968403   89.875740   85.880493
H   72.342964   63.178082   50.513775
H   38.417839    4.066064   44.705177
H   81.285843   27.725506   99.602936
H   12.817730    3.667631   73.234245
H   17.974453   56.784046   62.743454
H   66.767555   43.801655   57.445168
H   60.462688   64.182220   82.058273
H   47.609978   34.894989   12.301208
H    7.347340    1.319855   98.525597
H   62.446423   52.455597   82.462418
H   55.036461   79.940468   80.491158
H   38.439465   22.486252   34.591026
H   69.954308   29.774048   37.186314
H   15.312336   23.411129   66.492371
H   57.900948   25.820852   10.905373
H   13.808894   60.939274   61.700512
H   73.005684   95.787788   53.387814
H   23.728306   35.937332   52.561359
H   95.567635   27.812487   36.597191
H   31.492828    9.629607   89.164642
H   77.263550    6.941974   35.966843
H   42.362892   61.361450   57.795906
H   39.798302   72.727676   87.328934
H   69.871483   71.907410   76.791885
H   66.325256   94.209061   94.059227
H    4.303567   48.255028   23.392279
H   34.287716   56.357391   91.509483
H    2.704903    9.305763   66.286758
H   72.788460   18.822420   67.848297
H   81.067909   55.635063   87.936745
H   79.409531   89.131294   39.161736
H   21.446390   30.240322   73.631897
H   60.570927   90.051620    8.247152
H   53.876228   25.424000   81.237068
H   86.945465   83.563339   77.943649
H    1.563248   37.151962   84.504738
H   35.182251    2.640350    1.702446
H   85.136398   71.883980   29.375481
H    3.432858   61.663937   67.800583
H   51.613884   57.674938   67.092789
H   53.075130   27.385010   78.515938
H   46.751160   87.918549   23.223288
H    6.543847   20.140965   60.326012
H   33.181721   67.921158   35.530117
H   81.119736   49.342045   21.456463
H   75.596695   10.653364   28.059319
H   10.192462   88.558830    7.179547
H   25.712641   95.219978   43.864487
H   10.446435   11.919683   73.097481
H    6.860452   31.266083   96.220551
