100
TIME:    1.086, STEP:  1086
H   43.880287   22.429482   98.151749
H   71.061165   63.628056   46.504757
H   98.423431   52.035015   10.588448
H   81.658890   87.906212   80.636467
H   85.443848   59.805214   36.258598
H   11.176010    0.031695   86.295891
H   96.053749   34.669697   75.379387
H   34.528839   82.554611    8.480503
H   26.932045   81.878860   31.726854
H   45.161873   31.976715   50.218040
H   99.237961    9.940034   35.140648
H   14.389675   78.126350   15.626421
H   74.181030   96.002708   17.189600
H    1.309634    1.728901   39.885548
H   93.710274   73.018585   98.568466
H   57.858673   16.746861   42.893051
H   36.753746   53.815903   72.233070
H   24.351532   41.888580   61.896774
H   62.175049   23.911974   20.577730
H   63.257034   82.752304   90.272606
H   99.831863   48.103180   27.768692
H   66.480583   45.533333   26.784267
H   71.244362   85.789848    1.277449
H   18.140396   49.706608   26.418549
H   90.742912    0.046506   44.575195
H   41.679386   95.250565   87.382126
H   68.432709   97.332596   21.516668
H   40.907356    7.130159    2.669652
H   34.785141   47.622196    5.837122
H   42.634838   63.961411   69.722527
H   58.821903   19.430952   23.475075
H   34.327763   22.508034   98.727638
H   46.854542   89.025688   95.632408
H   23.988091   74.197334   25.999376
H   53.777596   76.826820   90.858917
H   66.978363   69.795364   16.907560
H   83.960350   64.764503   94.037971
H   19.105377   39.077282   99.078346
H    1.896874   57.325096   38.039146
H   60.903488   10.515209   23.477942
H   61.024002   93.445686   67.930222
H   34.017693   60.599953   53.822193
H   20.595190   70.012360   79.915688
H   10.011217   30.971067   86.917244
H   62.452003   89.043045   49.041100
H   64.076622   83.630562   87.581703
H   47.547230   84.324417   36.903023
H   56.297413    6.564813   35.773434
H   96.776970   42.506302    1.151994
H   48.666683   47.279011    7.709400
H   43.461765   64.797264   64.867477
H   57.910271   62.967289    2.766951
H   31.407152   28.305725   39.796661
H   51.541515   89.485420   79.739090
H   54.304291   53.710056    9.621565
H   94.925064   11.390612   55.656799
H   65.097900   58.210945   59.275093
H   45.192566   74.328300   85.582108
H   75.926918   84.654327   28.110199
H   87.354034   11.260786   32.721153
H   28.206751   28.067650   29.722687
H   60.366882   17.837021   46.217644
H   47.896095   33.096962   59.054298
H   17.612524   47.702057   97.653542
H   75.428551   74.107780   96.698006
H   34.630501   88.284859   10.398327
H    0.436287   85.908295   19.494568
H    5.348285   79.646347   18.119680
H   11.027290   71.753296   92.119942
H   52.385048    2.765060   99.446320
H   87.546303   21.509703   49.122562
H   84.421280   15.483467   36.133286
H   36.183060   64.586494   33.902103
H    6.288074   80.655914   38.664391
H   14.532773   30.188948   83.723808
H   51.334469   77.175804   22.855968
H   65.557701   32.419548   10.250450
H   83.002579   79.710487   74.416672
H   13.606554   50.321140   29.797745
H   46.266098   49.809082   27.361206
H   32.134106   40.516827   44.895931
H   22.806236   51.319962   95.966385
H   86.511284   25.382921   33.335911
H   24.876654    5.092019   64.235939
H   99.449646   80.954437   42.476875
H   26.296658   48.946224   17.198586
H   39.686211   24.391884   75.327728
H   73.437622   18.346607   84.452919
H   78.219917   33.704857   19.314880
H   70.320572   64.596634   63.037029
H   68.466133   32.073040   56.396069
H   58.639957   77.183800   54.214149
H   54.963585   60.169174    2.930484
H   52.194450   79.107292    0.042595
H   37.816654   52.453056   41.040947
H   83.620712   52.845818   11.355732
H   76.400894   30.003584   74.732147
H   10.852572   25.484314   38.660324
H   56.977470   41.531612   54.081356
H    6.685715   50.809338   93.088326
