100
TIME:    7.185, STEP:  7185
H   31.429552   63.121895   92.567947
H    2.045082   94.207756   31.142086
H    3.274283   90.822044   39.000469
H   82.682587   36.629242   46.328960
H   30.815153   48.666775   70.890518
H   16.597172   93.424049   90.300766
H   76.403412   46.503925   52.329510
H   55.159462   10.196317   48.491531
H   77.006859   95.484833   47.817242
H   78.511726   19.550951   89.039558
H   31.923828   55.346592   47.653618
H   81.609863   83.837662   81.493156
H   85.586052   27.086437   11.081337
H   99.323463   82.929695    4.020848
H   67.875008   28.233208    5.376966
H   12.629951   83.302551   36.623535
H   46.332191   57.201542   27.467249
H   54.715557   45.216843   50.456146
H   57.171207   79.773346   41.894939
H   98.943192   53.229252    5.520796
H   37.908630   40.928192   62.226917
H   51.213287   53.622177    7.409125
H   89.812096   36.187080   26.779669
H   51.468338   22.781710   73.453827
H   72.607613   16.353172   89.602760
H   13.729412   14.287792   14.742023
H   42.508465   43.805511   42.530552
H   26.292595   91.811226    4.269247
H   67.401741    0.971726   17.533274
H   76.498169   13.011206   54.575310
H   98.829277   66.347549   40.924675
H   19.422390   53.995304   34.112602
H   76.459358   42.793190   45.078499
H   81.684868   15.260224   69.058731
H    2.140779   15.664680   62.194290
H   97.217781   48.189041   96.837196
H   68.933212   41.405884   74.615265
H   67.021233   27.463184   29.466919
H   41.791790   24.867025   48.032227
H   86.446617   39.547703    3.334923
H   44.207367    2.719687   11.620317
H   94.701180   69.779129   46.766483
H   73.121368    6.588594   20.454372
H   20.557621   33.242516   83.246574
H   33.410538   48.407513   70.949898
H   85.379570   99.959732   12.351099
H   97.867477   15.582719   94.432899
H   56.626156   69.373154   13.144676
H   75.053413   37.388050   57.863251
H   76.590088   40.093731   81.157326
H   43.008236   75.978027   29.166599
H   54.319759   97.023712    2.386144
H   57.912334   63.669800   85.575386
H   10.306015   89.972626   48.870071
H   68.714493   88.263924   61.462490
H    2.544668    4.975801   48.032440
H   51.748714   82.226158   39.340813
H   91.046066   98.352440   28.487013
H   56.941757   42.358402   59.892540
H   84.882881   80.051376   59.252098
H   12.935658   44.435356   54.195953
H   43.908241   61.065109   70.257004
H   61.851467   16.991386   40.773438
H   36.420635   80.902817   32.066875
H   17.506985   86.990387   64.676765
H   59.961517   85.085777   71.017120
H   11.102293   96.767334   13.953818
H   84.048561   28.455690    9.687148
H   15.000565   33.518051    9.601151
H   75.950645    9.525771   86.603577
H   93.875496    6.534371   75.961891
H   81.596977   13.033139   82.704430
H   38.516205   62.911526   77.526672
H   72.036385   94.681091   76.245453
H    8.580483   38.894711   46.073170
H   95.513298   68.065208   12.470504
H   19.334145    3.919818   18.168310
H   69.544693   80.911247   11.239387
H    6.061218   32.414112   97.842049
H   47.165543   17.618446    1.927098
H   51.473076    3.614480    9.420306
H   80.452950   91.066498   85.907066
H   72.343422   27.276648   14.205793
H   44.465748   26.995380    7.179034
H    2.479765   99.457298   51.247169
H   85.927841   72.972824   40.731506
H   47.024693   80.944435   66.151878
H   71.583580   30.122652   21.080620
H    4.791538   94.123390   69.426765
H   31.087942   13.664539   81.062637
H   18.062550   61.399437   85.195847
H    9.916140   35.859619   70.426430
H   46.025776   43.105610   74.631660
H   41.668854   49.078453   11.272391
H   32.369225    6.140370   81.190369
H   87.373108   12.004394   96.334129
H   92.291130   80.012222   23.973267
H   24.408609   41.972889   34.643204
H   66.436241   67.828773   43.218662
H   85.499184   94.256119    5.585895
