100
TIME:    5.697, STEP:  5697
H   32.057045   99.578331   93.930252
H   43.137306   13.575011   37.319500
H   77.686935   83.769272   56.472027
H   82.432831   97.932953   27.890530
H   44.143539   29.397097   11.236595
H   39.676884   95.036110   42.939472
H   54.389332   46.027012   35.965900
H   72.113327   81.464615   85.114265
H   13.584801   38.550140   41.481224
H   19.156481   98.183846   30.778204
H   70.333969   95.473907   90.985664
H   38.402908    9.251741   87.410713
H   80.529556   17.081600   58.939140
H   72.999565   87.516121   90.783852
H   49.795372   61.148422   76.923645
H   72.459671   13.448689   60.140350
H   65.988258   58.781780   92.008728
H   22.894392   17.621937    2.038893
H   34.000675   17.348604   63.500332
H   39.029312   84.830849    4.210863
H   26.208656   89.062744    2.618366
H    8.557281   51.646835   34.126083
H    9.679967   48.288887   69.352386
H   89.724556    4.980929   83.964691
H   25.826374   34.359360   78.613503
H   20.576181   58.243126   54.696815
H   70.821030    5.658541   13.002888
H   51.844921   22.356392   55.087250
H   35.047005   65.968384   87.872437
H   19.441563   49.839073   36.283310
H   40.268280   32.916805   58.650429
H   25.469151   95.111435   71.864235
H   71.647087   51.662468   11.027707
H   18.813316   51.626640   31.744722
H   39.160034   28.270517   71.634781
H   67.868088   31.642612    1.515209
H   26.215767   95.898071   57.366619
H   28.525249   54.697926   24.463284
H    4.598740   57.288628   92.230980
H   26.600050   78.849586   86.262718
H   45.901733   51.659264   76.564552
H   20.102016   63.944031   70.800011
H   60.312435   97.663162   12.974730
H   15.571692    8.266928   37.758476
H   62.482121    7.118756   43.618389
H    4.586482   71.578384    6.305872
H   86.242477   34.660843   80.151405
H   56.543667   54.047226   21.075964
H   31.558952   60.623238   17.217869
H   45.361027   17.443335   85.208542
H   43.110409   19.634977   13.482612
H   81.996361   35.100208    0.063310
H   27.044781   55.041870   71.997246
H   44.760971   14.249366   83.209740
H   87.191032   57.863598   48.804409
H    0.691336    6.541032   98.687469
H   57.415657   25.162453   97.819450
H    1.845558   38.876610   66.813705
H   39.586700   79.481117   74.122108
H   83.075409   65.679626    1.574352
H   19.071686   13.635542   70.212059
H   96.720253   74.915207   37.583359
H   60.830982   18.529932   42.810059
H   34.242104   72.797104   72.468185
H   58.448135    5.833802   26.106115
H   51.370201   59.058311   83.034431
H   30.487965   45.321751   42.113968
H   86.834892   43.355259   38.552143
H   40.840397   40.436241    2.925728
H   45.805153   34.684448   89.736877
H   41.127846    7.776793   93.808083
H    4.223927   62.452621   73.730331
H   35.536789   36.508949   15.675797
H    4.798237   88.855858   64.657097
H   36.846577   36.762592   33.269791
H   60.341949   72.698051   12.594078
H   84.205833   32.767704   91.802452
H   99.635742   78.208199   29.063616
H   34.704617   36.784840   81.244637
H   20.138592   98.676582   30.119427
H   22.353365   88.219742   20.485342
H   68.786499   81.416702   10.386640
H   78.223274    2.393160   72.497711
H   42.094139   99.663376   43.083721
H   74.932381   92.533806   95.492233
H   20.173458   18.313633   37.400284
H   47.644478   89.134468   95.198380
H   47.652428   49.194386   36.508720
H   73.911972   76.972542   81.596687
H   62.648319   74.886765   27.871912
H   57.167381   81.052689   53.772015
H   99.819206   23.948011   42.076569
H   50.642105   98.456520   59.562336
H   97.861183   58.803539   10.939004
H   58.094078   39.427372   46.996525
H   64.470428   70.763397   73.191406
H   10.401531   94.620018    9.549560
H   27.280802   68.344452   64.511925
H   37.321014   61.407825   67.854546
H   93.074203   32.440884   48.931118
