100
TIME:    3.633, STEP:  3633
H   71.637360   88.856781   95.819901
H    0.211014    1.719416    7.168432
H   42.202713   35.276070   80.695915
H   82.086395   82.970085   41.026157
H   62.630600   63.958477   67.199097
H   71.686897   97.272194   38.534164
H   62.563084    6.654346   74.558266
H   34.339661    2.903344   74.624489
H   64.321861   36.995331   71.403587
H   75.560677   68.547859   49.955666
H   62.322220   12.424032   89.800529
H   17.178276    5.794221   34.327614
H   12.167718   41.905930   64.037407
H   75.196175   93.877937   33.713154
H   24.692249   45.512894   76.138313
H   55.449631   93.973503   31.471022
H   31.962990   22.265835    4.114675
H   78.775475   18.028069   73.593933
H    1.853894   30.762194   54.761486
H   94.640892   28.665525   63.684166
H   48.689346   94.540222   58.634827
H   10.679596   48.906845    9.894730
H   37.238243   65.075264   28.406624
H   81.496422   80.253815   37.255421
H   99.647980   98.043427   63.370338
H   29.999048   19.358721   48.649345
H   48.801601   91.457291   72.056374
H   26.000166   26.015854   86.859154
H   90.166534   78.706284   85.438850
H   40.297974    0.922630   72.201752
H   59.038486   47.833309   21.947548
H   95.147163   52.133751   62.939049
H   26.260729    2.675189   25.086287
H   31.605022   40.779915   18.698471
H   90.463989   84.293083   45.951935
H   88.434425   69.877411    8.146356
H   28.251308   71.487289   94.731621
H   13.834395   92.463280   78.811790
H   91.721832    2.261862   92.247871
H   21.005783   72.074615   23.870768
H   86.962311   80.840240   27.937605
H    5.107810   74.910324   73.482788
H   42.533993   85.285965   63.887791
H   47.367081   73.658691   35.949577
H   41.519703   88.552032   66.996399
H   31.216953   32.210712   97.919563
H   70.117477   22.412926   60.338684
H   56.433437   32.788681   93.367409
H   71.224167   31.564445   99.551086
H    2.072330   86.034935   29.567631
H   43.267445   18.900864   91.722595
H   81.690033   26.623657   35.562481
H   84.235497   43.074097   91.870277
H   92.562737   47.932144   92.131439
H   51.528610   76.972839   31.246763
H   98.111923    8.712805   68.950912
H   26.568438   84.717873    1.515887
H   55.535393   33.795944   19.977665
H   76.803307   92.271332   32.575436
H   19.278854    7.031714   60.279427
H   88.872780    9.621642   31.138577
H   69.972343   94.126633   30.972626
H   20.704260   59.373833   84.344749
H   92.510918   61.557121   28.504269
H   76.523537   70.683144   33.894993
H   78.164284   61.665627   60.995117
H   96.085678   73.963165   42.464092
H   29.409752   25.312742   39.881008
H   37.970795   88.742126   32.377171
H    3.991408   30.871523   94.083069
H    6.667553   48.210747   18.567860
H   74.409042   30.953079   22.612591
H   70.113037   38.602757   68.600334
H   50.236797   19.475578   87.293938
H   37.333088   33.817890   76.803871
H   11.542140   40.414024   51.474018
H   96.807503   11.661953   55.300739
H    2.665278   13.167143   15.076031
H   35.728035   42.847462   58.218468
H   21.356300   11.092274    7.935039
H   81.970352   66.866714   97.125183
H   13.912093   67.953812   82.988037
H   47.658894   67.898773   75.925232
H    0.095272   23.042759   31.598442
H   75.432190   21.637821   95.573914
H   67.681152   42.500870   94.069626
H    9.794592   39.204231   96.778671
H   14.435865   14.427391   57.960831
H   31.079773   91.892982   98.477547
H   45.132801   59.806061   54.086876
H   72.699921   69.601814   10.184121
H   47.099899   68.726128    2.751171
H   18.336498   36.525352   99.949913
H   98.370399   33.600670   71.772133
H   93.776939   24.307438   99.570335
H   93.992462   52.267769   79.799660
H   74.231995   76.171089   28.252535
H   20.202070   47.170502   97.904533
H   35.645561   52.510731   40.735405
H   64.869041   85.404640   47.761772
