200
TIME:    0.267, STEP:   267
H   10.300819   62.385387   15.801260
H   28.204937   33.272335   90.993271
H   17.571775   70.319939   46.678093
H   18.752638   77.289345   43.793652
H   14.923477   84.413559   53.270306
H   88.740234   52.082172   64.750175
H    3.750408   55.284973   50.173969
H    3.493682   90.052307   24.113945
H   88.524979   87.101448   47.060753
H    9.910748   74.520683   95.007469
H   13.134784   95.170967   93.814896
H   30.889450   42.743511   14.028784
H   11.836856   87.903954   60.185081
H    3.127449   53.320850   43.566860
H   18.318291   72.152435   42.912159
H   28.513390   24.853897   53.740559
H   85.477570    8.983042   14.121157
H   35.921024   84.465004   43.039680
H   65.923759   28.724424   42.881298
H   90.142151   79.333885   36.424068
H   58.409103   78.106071   24.603481
H   89.427940   49.846397   69.534218
H   94.196686   62.345146   48.488358
H    9.180121   88.305344   91.501419
H    4.420020   13.789889   44.446918
H   18.638742   63.534439    6.064802
H   99.418571   59.338520   50.167450
H   95.129913   71.243240    0.802315
H   12.205781   55.709053   38.180264
H   91.829323   21.487640   97.691925
H   13.326241   52.577274   16.227823
H   31.435066   64.139145   94.267868
H   26.470917    9.566518   73.508949
H   95.532951   63.607376   38.762230
H   46.692738   88.685349   34.013714
H   32.179295   49.306339   79.786087
H   87.039413   73.846245   86.157631
H   31.579363   45.453735   13.953470
H   52.070976   45.433784   45.031796
H   89.823814   39.577457   62.641693
H   80.512344    3.962542    2.420469
H   14.683214   42.540714   39.030544
H   76.215714   87.161682   51.330853
H   37.221115   64.545250   19.713982
H   29.699497   77.118919   45.338264
H   40.679836   13.135827   42.981522
H   80.482956   24.889393   96.771034
H   89.458496   65.550194   46.677017
H   88.124550   27.727551   61.185799
H   61.151184   17.923349    4.570127
H   77.565948   70.154373   26.798698
H   20.105986   36.162701   64.122215
H   52.904850   93.649551    8.281455
H   22.004751   82.753479   82.102997
H   76.056046   75.784462   89.900146
H    4.959534   71.684906   79.532349
H    5.353429   16.847633   49.364964
H   67.703659   59.207058    4.816123
H   27.611435   74.999039    7.779511
H   42.478821   95.837563   66.495110
H   50.332073   14.849628   41.447651
H   90.421806   16.488844   49.273102
H   72.191154   25.765793   83.974014
H   24.780222   65.190857    4.270332
H   71.782402   76.481583   19.033676
H   37.680584   17.610096   33.348618
H   85.166603   22.592466   86.392952
H   97.190224   91.511314   87.806107
H   17.482880    6.218114   61.638062
H   45.081543   42.100578   50.981152
H   58.453320   77.059120   74.003555
H   31.381670   23.112133   44.575829
H   78.350723   26.129879   98.591652
H    8.744982    8.371224   61.358597
H   79.473801    1.308647   66.343178
H   53.996216   18.123367   62.701038
H   95.313461   30.955343   71.763664
H   25.555193    6.461594   47.044273
H   11.735832   30.896378   34.340458
H   67.869255   90.516365   92.981171
H   44.514042   29.645721    0.732849
H   27.823652   68.104721   87.022545
H   10.894373   13.962468   89.489731
H   23.793598   62.742485   94.731537
H   37.946743   99.609360   57.017033
H   25.427896   84.829636   27.220768
H   37.065327    2.840371    1.833222
H   75.106956   17.539455   12.460570
H   66.513756   72.117821   77.264587
H   23.308895   87.257370   54.568462
H   40.110989   35.125877   80.634392
H   83.867355   88.772354   98.956985
H   48.542313   16.557589   94.960854
H   58.817139   93.463623   69.846039
H   25.809057   56.560974   69.064301
H   68.153938   28.312962   27.792194
H   79.671852   13.345301   99.492058
H    6.152447   28.858267   48.849209
H   36.406105   69.507561   52.976933
H   67.673889   98.366150   27.256998
H   11.070873   81.172913   70.211189
H   91.576317   77.065056   65.715668
H   23.739080   36.183243   30.880171
H   23.173302   67.989334   91.234566
H   25.302948   27.117908   25.962906
H   88.492004   25.450970   42.626690
H   66.937317   30.432035   56.133575
H   64.592171   35.311039   17.697578
H   73.482727   39.748837    0.438178
H    5.234069   27.683935    5.669409
H   47.549778   95.832153    0.814847
H   87.078102   64.024353   90.818710
H   56.625095   80.587975   93.348083
H   63.132713   18.815260   74.257721
H   62.949242   83.092880   25.825964
H   12.936607    5.007429   80.152428
H   31.464840    8.822897   84.494858
H   40.634129   28.325447   33.438805
H   19.887726   58.727306   82.205231
H   71.495163   47.213741   50.349964
H   40.836372   21.938854   86.635086
H   17.124100   26.840420   48.982372
H   32.887337   20.683834   24.830105
H    3.679507   66.347153   16.682852
H   76.108467    8.283595   91.920151
H   48.711529   63.091225   25.010067
H   94.715508   49.315994   70.012024
H   74.838089   87.781731   35.230610
H   92.799988   51.506332   84.274963
H   69.053871   24.021372   66.961594
H   49.698868   84.221649    4.443165
H   80.663651   86.319168    9.963712
H   92.349586   83.908356   97.575996
H   99.596642   13.695224   50.039463
H    5.759905    0.881925   55.176186
H   61.638954    1.592198   83.283829
H   68.937416   86.633324   56.682770
H   91.448647   63.377922   82.771759
H   47.018967   44.711220   71.543701
H   43.462570    7.794977   94.707260
H   51.954350   62.274662   15.782095
H   55.995331   41.831196   46.876305
H   54.137547   57.257950   98.473549
H   56.475883   25.550306   78.571846
H   41.571064   68.871620   49.951435
H   46.929417   62.440968   28.553043
H   45.369835   96.659554   47.088570
H   41.915192   72.413651   68.670067
H   65.907074   63.665051   97.676048
H   10.322648   88.969574   88.986534
H   75.268532   61.768490   51.140366
H   34.923939    6.362627   47.306210
H   77.430046   30.829014    2.516723
H   10.623633    1.762489   75.285309
H   14.683189   54.592087   61.241726
H   64.303619   43.595852   54.891628
H   59.593884   61.693245   81.075485
H   46.429935   36.226692   10.356688
H   11.146073    1.632597    1.603660
H   63.376968   55.842163   79.277222
H   54.221165   83.312469   82.697998
H   42.336422   22.916380   35.310070
H   66.381569   33.392796   37.220825
H   12.265740   20.972839   70.043579
H   58.695663   23.004519   10.089839
H   12.378881   63.580200   62.154228
H   74.434906   97.130257   52.507927
H   23.655800   32.161007   49.129200
H   94.439835   28.082405   36.793179
H   27.705105   10.255960   90.099304
H   78.849182    5.954912   35.973808
H   45.230202   64.444336   57.541027
H   38.194622   76.294083   89.664322
H   70.892265   73.897049   74.869370
H   70.182953   94.833435   97.961884
H    1.740986   47.806694   23.312649
H   35.140373   53.764591   88.037430
H    1.969296    9.226608   65.225449
H   74.911079   20.751902   68.819054
H   85.016159   54.744728   86.765884
H   80.924873   86.156967   41.091534
H   19.772263   30.139004   70.601845
H   64.392181   90.137741    6.604416
H   52.068825   25.270344   78.183586
H   85.872124   87.163307   78.285599
H   99.825676   36.451599   84.089333
H   32.292145    4.062073   99.863358
H   89.123909   68.368233   26.471285
H    5.836477   61.293808   66.851990
H   50.104557   58.126438   66.044144
H   49.110100   30.131054   79.108650
H   47.431576   85.662949   24.280481
H    4.700209   18.166365   58.424709
H   34.631840   64.608681   33.857414
H   83.968048   53.049347   21.727964
H   75.394058   10.449698   29.196459
H    9.640752   86.295631    4.378095
H   28.124809   96.869568   46.205257
H   11.553259   11.687443   76.809532
H    7.726130   34.078026   97.373680
