100
TIME:    1.736, STEP:  1736
H   99.924225   62.821274   97.556656
H   52.980263   98.867516   87.506645
H    9.595129   98.799385    2.956737
H   81.767990   61.127037   45.007603
H   79.621857   11.905568   18.634502
H    1.096277   99.327354   50.668064
H   61.984982   78.561104   26.210320
H   83.440117   38.787746   48.800819
H   10.953804   19.384201   90.811821
H   27.398996   41.309746   75.670860
H   38.776535   36.094074   72.528503
H   89.581390   10.707281   69.358711
H   32.835739   56.676994   52.584152
H   69.125084   99.725014   89.350090
H    1.615519   14.960808   67.326096
H   31.724182   59.893860   88.938248
H   84.495667   96.801437   31.413687
H   38.241989   10.279011   39.362595
H   72.300652   51.182098   54.820362
H   45.746429   68.946152   34.527565
H   61.259933   83.393127   10.126671
H   28.806950   46.391258   71.438515
H   62.565926   80.503441   82.680710
H   57.748314   57.502323   78.144226
H   67.494621   48.493141   49.370651
H   38.698963   75.880295   26.457376
H   12.381187   70.315384   34.415302
H   86.063248   37.470318   24.154844
H   48.918594    6.595729   75.110863
H   67.559303   47.874069   21.395462
H   84.391060   77.720825   72.040283
H   75.369324    4.550438   38.553841
H   92.638870   41.467857   54.189545
H   51.451622   14.628576   98.616959
H   37.620827   27.691994   30.438705
H   23.493351   20.855410   14.671830
H   46.303749   40.960793   45.255253
H   92.239738   27.180386   44.945553
H   72.677597   43.449516   75.740082
H   99.682014   49.665157   74.619766
H   16.605286   15.749785   83.243942
H   75.599396   89.769997   84.360367
H   26.194021   73.910217   26.866772
H   68.503975   41.865990   50.470463
H    6.070782   63.394665    4.663984
H   55.690731   96.028328   90.219948
H   54.410633   19.387613   42.457222
H   56.332127   13.257128   75.991783
H   15.776364   88.674095   75.225632
H   62.299267   57.172428   62.245274
H   43.412174    2.043556   71.720963
H   89.499779    2.650829   60.098042
H   44.890961   32.074646    2.044936
H   36.490627   78.882851    8.421869
H    2.556329   10.691629   15.137331
H   95.738358   10.707495   33.529266
H    6.307503   39.455605   21.095617
H   96.791107   12.943658   68.840164
H   27.191559   12.118447   78.210266
H   44.460026   61.223782   14.233724
H   69.208878   97.840889   79.043144
H   37.297119   11.786047   16.805183
H   91.984360   88.770790   14.461970
H   62.248642   51.237900   80.009041
H    1.225951   22.192329   57.232235
H   94.700172   55.971321   48.831219
H   48.286301    8.381789   50.876781
H   60.448387   16.820827   49.193439
H   43.424942   25.048431   51.354546
H   65.552063   35.458633   98.077606
H   66.906502   77.283180   41.326847
H   30.826273   93.910461   83.723778
H   93.800751   32.436520   17.234547
H   91.984306   39.522133    0.032920
H   45.870689   31.113821   32.999004
H   66.701866   18.833532   79.118309
H   24.572165   76.082748   21.750204
H   13.540767   37.207817   10.311852
H   44.764618   48.416843   37.047203
H   14.388899   14.407255   71.363258
H   44.854214   47.241375   83.745567
H   71.577805   55.564957   41.614578
H   27.639431   36.231934   95.245392
H   69.592293   60.713360    4.865517
H   67.800629   40.296791   79.466766
H   11.335033   72.822487   62.336372
H   83.098228   77.131577    6.322307
H   83.901337   66.306244   77.697517
H   91.708687   97.514977   13.996706
H   12.852390   37.852066   86.275398
H   95.066780   67.169083   70.122879
H    6.733483   26.069357   66.598076
H   96.669670   79.647568   53.216934
H   15.018288   18.533453   43.867920
H   26.578121   94.228760   55.977776
H   37.308090   27.177950   77.782196
H   24.806698   67.305977   37.350403
H   13.239142   31.018677   28.260185
H   26.013290   44.333508   99.635208
H   47.052841   34.112026   30.484505
