100
TIME:    4.843, STEP:  4843
H   89.810463   77.893593   94.712112
H   66.723427   67.300339   83.472717
H   63.001434   22.328590   66.497765
H   82.289490   33.119621   74.702644
H   51.792740   60.945312   34.390106
H   52.922901   95.961311   58.365437
H   99.149437   88.359955   69.181915
H   39.236046    7.583608   63.526775
H   34.577751   20.658813   95.236855
H   42.493202   85.921669   97.334808
H   49.770966   61.111149   73.246582
H   70.998573   66.445229   48.198723
H   35.025192   68.724419   43.797119
H   15.284564   90.148384   25.794397
H   39.409660   37.430817   17.973248
H    6.796907   88.142471   31.030167
H   34.661964    2.298502   14.265745
H    4.632301   59.172428   31.642080
H   20.699764   81.523392   18.510782
H   62.035553    2.969458   46.066566
H   76.886238   74.081879   25.797268
H   26.683472   50.513138    6.852064
H   21.083000   55.234413   93.785522
H   69.074310   94.764618   47.390137
H   56.370392    2.084557   72.306496
H   24.469194   83.485672   35.004543
H   44.461777   41.159519   96.058449
H   23.903835   82.494583   26.855577
H   16.477821   88.487053   28.240364
H   86.695831   70.975365   68.393227
H    6.656805   56.336010   26.216194
H   71.547218   18.706245   50.923271
H   11.491264   14.145502   34.092644
H   82.729477   29.890594   67.723305
H   60.387543   92.826309   19.633598
H   93.631683   64.753212    4.201193
H   44.305550   27.175262   90.074875
H   63.819729   70.325981   64.197197
H   40.648579   75.896904   74.989700
H    7.037333   58.798622   19.071119
H    4.267426   22.359045   56.444683
H   96.359215   29.213823   30.327768
H   52.956432   92.541977   51.288216
H   70.100677   93.932434   54.258499
H   36.561443   40.810852   70.539085
H   15.606314   55.289631    2.835166
H   79.570602   88.216209   71.954903
H   56.498058   45.251297   68.235329
H    6.598015   31.352406   51.286018
H   27.449909    4.444906   44.937851
H   43.175129    2.082712    4.479815
H   40.492607   14.344801   56.129120
H    9.329741   50.090088   21.594698
H   64.535698   28.185822   45.524071
H   55.188263   83.019539   41.539623
H   99.625900    7.439357   27.759659
H    3.277961   49.804085   16.597191
H   65.435684   19.526052   88.810043
H   72.233070   43.398087   39.683334
H   39.430408    0.036179   25.864143
H   65.200836   53.348942   36.797287
H   27.027628   82.864120   76.224747
H    2.851151   76.805344    1.371406
H   75.600441   68.145035   95.650345
H   24.548689   74.042419   46.576817
H    3.832819    1.513273   32.539284
H   99.005066   15.798228    0.881514
H   45.826698   94.513016   97.726006
H   98.275375    1.799239   56.489288
H   28.505835   91.730957   91.535156
H   68.245369   65.882278    4.051534
H   74.639008   90.795059   11.203147
H   91.218277   78.751228   37.574402
H   23.595463   42.905117   15.398968
H   95.672371   35.544193   68.530243
H   40.150406   17.963186   70.055984
H    6.667583    6.786888   76.699516
H   59.513271   34.048252   81.900841
H   93.753166   39.293308   71.718971
H   62.015320   45.193905    3.692511
H    5.641994   79.384720   69.443718
H    4.700749   75.856033   81.808617
H   24.204958   88.111389   91.166397
H   83.340225   26.585253   21.084076
H   16.515112   45.953049   78.277916
H   39.830730   86.946098   78.095764
H   90.607735   51.227371   54.476486
H   33.910309   17.552378   45.378204
H   56.189804   24.521517   88.581306
H   38.152325   10.020218   97.343887
H   22.218224   34.940067   35.737103
H   36.631855   59.719086   25.807356
H   95.899315   72.835350   93.521164
H   15.321662    6.995972   53.356388
H   72.858208   15.922745   27.372597
H   93.933502    4.487363   17.301949
H   78.187920   45.610409   58.663635
H   24.642454   57.472931   78.536705
H   78.003815   57.726566   39.385307
H   40.027920   54.352520   31.198606
