100
TIME:    6.623, STEP:  6623
H   69.435867   14.659897   93.082474
H   17.564655   63.756336   95.706398
H   93.611038   50.388847   45.599270
H   82.588257   59.782928   77.134399
H   35.849442    3.620045   86.129074
H   25.314106   94.032906   34.643902
H    5.859514    8.553528    8.380381
H   99.331551   61.574528    0.091246
H   90.821892   49.518982   83.192894
H   93.861763   11.480862   67.034981
H   84.199707   32.733158    1.788997
H    3.057629   55.667347   21.496513
H   21.439407   61.084385   66.926933
H   27.149261   84.661934   61.254475
H   61.048958   78.433830   32.402515
H   35.228073   32.457314   83.273926
H   91.524757   20.031300   76.306160
H   42.697079   72.563919   69.936562
H   48.419971   56.198044   12.288234
H   14.083435   65.162392   67.257256
H   71.258514   96.876129   77.482124
H   97.333801   52.876114   55.268646
H   97.315605   40.757790   42.859314
H    3.685393   16.058565   15.191566
H   92.708443   60.924019   85.452248
H   16.354952   30.866951   67.619072
H   90.970177   67.168716   31.378195
H   73.711624   65.578957   85.694107
H   55.181740   49.982189   44.098816
H   54.948093   26.920799    9.898331
H   76.713219   15.953099   85.388329
H   83.937592   69.522659   86.139793
H   36.872189   83.912422   94.449097
H   57.939476   66.764297   92.735519
H   16.128159   58.216011   27.999727
H   48.363506    4.170199   98.603737
H   15.031224   61.986938   30.331701
H   90.252098   37.749424   89.808586
H   65.515472   37.111504    2.494760
H   39.380886   92.160019   59.119320
H   82.616760   83.434074   98.380714
H   42.063675   67.575241   18.076309
H   68.284821    3.217313   79.859978
H   56.441547   23.809530   28.297800
H   82.159218   70.580582   22.858423
H   92.634392   89.240433   10.067888
H   93.476852   85.018875   89.038948
H   56.593121   63.584732   78.371643
H   58.624275   83.933083   80.280624
H   64.790283   31.539614   20.451437
H   43.046825   30.235968   23.243114
H   27.002739   49.174866   39.277596
H   46.254025   60.411133   18.214731
H   23.319244   99.139771   24.070587
H   13.461689   39.013000   56.681683
H    1.844698    5.566970   67.164246
H   16.122049   98.442314   85.889793
H   32.892975   51.427055   42.962875
H   12.619517   18.608723    3.035630
H   21.969582   36.854191   75.236717
H   77.484398   70.570084   98.015488
H   63.854713   66.296127   95.683182
H   23.695517   55.341591   79.311462
H   97.828781   77.841385   47.326870
H   95.200394   31.875858   12.340049
H   94.486237   13.024063   37.787292
H   56.192947   77.335388   86.820145
H   22.870018   96.313148   82.820297
H   86.991341   73.899796   44.850300
H   64.562462   81.260185   87.786987
H   11.721888   44.772522   82.702187
H   27.870783   31.720657   41.527023
H   75.159058   90.706299   91.933411
H   84.410744   30.250080    9.637720
H   81.491936   38.083714    3.465969
H   82.229942   32.044559   50.284912
H   68.292572   52.563953    8.201506
H   43.140911   17.658125   80.203606
H   79.109413   34.064884   91.573402
H   74.727005   48.233772   50.343773
H   40.474625   97.799637   75.830399
H   38.281555   87.421936   32.924580
H   36.794945   17.877966   60.685341
H    5.801927   78.903465   58.507504
H   29.844534   34.612831    5.726841
H   98.859604   52.329315    1.704305
H    9.489992   21.806740   39.353630
H   62.545067   75.095398   26.907631
H   93.128281   25.413942   74.023201
H   80.776840   36.788212   60.971031
H   95.063072   31.055180   73.327438
H   68.333832   93.592590   59.717422
H   10.000533   26.242008   31.171335
H   87.354286   14.982539   73.377731
H   42.085197   56.482468   68.275757
H   40.954254   34.195892   25.362579
H   36.899406   47.759995   56.294632
H   25.493402   14.165654   45.924194
H   93.208763   65.401924   90.291145
H   50.590214    8.678429   59.726749
