100
TIME:    7.065, STEP:  7065
H   39.544754   74.126534   92.677811
H    5.358913   87.705681   23.575710
H    1.211486   82.188622   40.409466
H   82.662445   41.573090   52.907024
H   31.890440   39.048244   74.144302
H   18.458439   93.554054   78.417221
H   82.693085   38.400593   42.945354
H   64.591225   99.814972   59.509903
H   79.956688    7.022435   55.371258
H   81.789314   17.827929   84.341072
H   43.085938   50.518101   59.212151
H   86.189331   77.822647   90.035027
H   93.238029   34.349316   23.006538
H    5.265005   83.299568   94.889000
H   66.417488   38.952202   11.147587
H   17.455238   93.798157   46.584473
H   55.981850   49.264835   16.543177
H   52.149334   51.056076   54.615387
H   55.302616   74.739777   35.573223
H    2.176224   55.777164   97.350700
H   45.029602   52.874908   65.483864
H   39.708771   53.462875   17.628235
H   91.414268   37.163033   30.213354
H   62.618546   21.346163   82.365570
H   76.899605   25.870079   88.716530
H   14.295208   17.824932   26.034620
H   52.856670   48.794220   40.149265
H   36.417671   86.210030    0.302496
H   64.792488   90.084297   23.205423
H   71.896729   15.981405   45.035515
H   94.106987   55.587158   50.418694
H   11.845612   57.310429   45.221611
H   68.007210   51.573097   34.267952
H   76.614677   26.257523   74.114273
H    5.127344   24.750374   54.892960
H   86.786263   38.790237   97.214394
H   57.423729   45.800415   65.159698
H   71.981560   29.659534   20.999207
H   46.857403   27.481314   59.661255
H   97.749718   50.782139   93.893845
H   52.408661   98.602196    8.793398
H    4.814184   69.308548   40.640690
H   72.088654    5.868761   11.786963
H   28.219669   31.228354   71.513176
H   43.819168   53.141705   60.681343
H   86.928642   97.670914   11.863581
H   96.929977    9.056382   93.281166
H   56.618832   68.137192    5.719978
H   71.545113   47.326099   62.650543
H   74.070557   38.267254   89.547218
H   43.016476   87.563110   27.901798
H   48.487370    8.158890   10.263419
H   55.423016   62.973999   92.544380
H   13.084641   91.930023   43.574661
H   78.268936   77.748177   60.441677
H    2.395208    5.102029   52.117523
H   44.141598   85.688683   27.927849
H   99.981613    9.685156   31.578291
H   47.477951   37.287296   69.104576
H   92.802193   70.828354   62.665184
H    5.365849   50.015495   63.551727
H   48.167274   62.182053   75.686081
H   53.704189   25.180321   49.002197
H   28.180187   80.249130   35.325237
H   12.743953   96.574127   53.501835
H   67.333344   91.051353   63.921783
H   20.730436   92.618164    8.159904
H   92.337746   21.592440    3.950454
H    9.019653   42.140488   17.127506
H   73.519005    3.490014   86.856262
H   97.685921   14.699273   77.401100
H   91.471855   17.026382   73.909874
H   46.340302   68.846146   80.602844
H   74.678596    2.276145   83.375580
H    2.800301   38.718014   36.974659
H   92.676994   60.374348   20.544897
H    8.435409   14.306431   16.040167
H   63.906872   88.757317    4.612054
H    0.306977   32.766590   96.503548
H   53.050552   24.155769   12.265059
H   49.124298    2.372876    2.248073
H   71.447823   90.288300   95.946739
H   64.753700   25.269812    2.777488
H   36.210438   16.726368   18.138988
H    8.322660    6.963950   62.879860
H   88.689072   68.565475   32.398376
H   39.010166   89.669411   60.429832
H   69.653648   39.725529   22.324821
H    2.300960    0.804875   70.408211
H   41.697948   18.601978   76.772476
H   13.151661   54.920250   82.661667
H    1.037355   26.834614   68.139442
H   38.333515   39.504841   65.351875
H   30.071793   41.798180    3.181121
H   34.443810   16.889557   78.432800
H   77.461609   16.742899    2.532339
H    1.816228   73.125626   30.874969
H   24.640238   36.035694   37.051956
H   72.152794   67.310585   53.270237
H   78.044960   97.335953   17.146076
