200
TIME:    0.680, STEP:   680
H   22.991407   61.014729   22.863304
H   31.886023   39.301659    7.759690
H    8.915679   88.396881   67.020561
H   32.674240   82.116585   32.993805
H   10.538550   94.880981   47.332359
H   75.304626   40.872704   52.526009
H    9.734038   54.991936   58.167904
H   12.748780    7.885954    9.454373
H    5.297122   80.909851   36.985622
H   95.372391   68.735558   78.717110
H   27.529932    3.993386    6.866082
H   32.597260   53.767075   33.707298
H   21.973431    1.610704   43.258232
H   83.607124   55.063320   63.468197
H   98.378677   75.331734   41.895981
H   16.475224    7.837246   44.831276
H    4.905885   28.325874   94.069130
H   26.114197    4.319330   35.686962
H   79.665009   13.772486   48.961037
H   91.456093   73.662193   20.414143
H   63.365532   98.722672    5.682302
H   80.233498   65.632607   53.618820
H   81.829247   59.342300   38.578651
H   17.927917   92.070717   90.206383
H   22.371140   30.400122   29.709972
H   18.296865   81.863419   92.424385
H    7.416605   67.625496   66.772903
H    4.608353   88.280373    1.889040
H   29.600544   43.155708   35.761917
H   73.166306   32.551418   83.405563
H   12.787037   69.831825   16.732761
H   23.924801   73.818832    4.436171
H   16.491890   18.453241   78.553604
H   81.864174   64.057961   45.981033
H   26.873121   71.619858   30.871943
H   18.688545   39.889755   84.521950
H   98.893250   64.932236   89.258156
H   11.150937   56.136997   95.384369
H   36.785767   30.644920   54.212059
H   85.863083   37.879101   46.508881
H   80.635231   84.669479   16.128944
H   35.239944   33.880356   26.784081
H   68.779495   77.674202   66.666481
H   36.301041   84.604134   34.484669
H   43.810852   89.719528   60.242210
H   34.867928    2.387562   47.473186
H   88.265778    4.655444    5.825940
H   79.403847   65.543892   31.829788
H    4.096714   12.054874   61.483562
H   46.371700   19.787130   87.097900
H   67.741318   64.926964   10.431275
H    4.318493   43.271221   73.001564
H   64.043907   81.838219   13.678854
H   15.858046   91.468979   88.218971
H   58.574631   66.599472   76.543312
H   99.665215   61.510132   93.056183
H    4.174781   18.410500   44.934742
H   72.215805   68.807968   97.361626
H   18.896723   82.977219   17.768314
H   32.926746   93.518471   58.860382
H   48.994499    6.791887   29.380955
H   97.844475   17.467211   52.439247
H   83.569199   34.321167   70.040558
H   34.787041   65.780083   13.491478
H   78.421432   82.638519   35.922108
H   21.479513   33.655388   40.772232
H   69.739601   13.880809   94.925697
H   94.877434   92.450294   95.982796
H   32.173340   11.799216   56.410652
H   42.704159   49.298901   50.959095
H   58.272141   84.202301   85.050751
H   19.774395   12.256494   41.684841
H   91.458633   33.269909   84.762177
H   22.200071   99.293205   73.382240
H   84.502701    7.994154   46.923935
H   64.435280    3.542669   60.002258
H   93.567841   46.330353   65.921822
H   10.258316   13.982100   32.921761
H   14.875744   49.296337   25.193279
H   61.645550   88.213028   73.394928
H   62.042721   22.665602   94.601288
H   45.983913   60.677250   74.254936
H    9.283061   18.492731   77.405876
H   10.325693   76.247414    8.192018
H   23.239731    3.976657   45.312866
H   37.063187   70.379425   18.623428
H   55.575523    3.700972    2.780070
H   71.672432    2.168040   28.038029
H   79.153397   73.128159   78.755371
H   21.240303    5.769507   50.024807
H   22.798569   38.691166   78.797394
H   80.990547   92.395935    7.968511
H   68.161972   11.899712   83.198395
H   40.297489   78.625847   81.186272
H   36.273796   50.974358   86.265282
H   51.050636   37.546791    8.373869
H   85.274223   99.060326   17.278831
H   94.799187   35.275543   52.759525
H   27.047813   65.370377   54.440544
H   74.854881    5.076897   27.357828
H   29.497465   92.591919   89.658791
H    6.933472   83.313370   63.437538
H   32.300186   21.089670   36.651272
H   43.018272   68.751862    7.635592
H   24.755472   21.690414   39.352825
H    4.842516    5.230600   23.290590
H   86.501503   35.560192   54.211502
H   62.158451   51.168144    1.727539
H   83.978508   34.535606   20.408833
H   18.501101   21.925592    7.690737
H   52.983574   92.243233    1.105423
H    3.661260   74.409851   95.523064
H   49.451981   85.380554   84.364754
H   61.733696    9.911491   63.607605
H   49.167030    0.290703   11.344905
H   96.081947   92.926094   98.783936
H   14.484389   14.638350   89.309494
H   38.538754   48.653736   25.183342
H   35.572136   74.233078   61.793613
H   82.394264   55.456600   65.756668
H   45.146858   24.683323   73.101799
H   99.304108   17.056751   61.130821
H   42.844307    3.265154   37.082073
H   97.594757   51.485497   98.596916
H   63.750481   98.058037   78.260826
H   63.842342   74.390625   17.035826
H   84.449745   51.244370   54.061966
H   65.804344   91.020897   38.718700
H   97.882454   36.556698   74.863106
H   89.071793   22.063850   73.997643
H   66.370491   69.475250   20.226223
H   64.811272   90.415390   19.703266
H   91.000984    4.001742    0.648376
H   79.345551   24.284115   55.122417
H   26.162418   93.414215   36.198074
H   50.639023    1.062151   77.199364
H   69.621170   87.685738   77.242653
H   94.971397   50.482700   76.246162
H   57.814087   50.486893   71.446022
H   43.686287   87.987694   83.231537
H   72.400803   50.129364   29.123169
H   36.982559   54.379814   56.504002
H   40.861061   64.859413   84.543243
H   37.551338   10.600433   85.415688
H   60.984005   55.174484   63.456364
H   62.061806   69.556137    8.773018
H   55.137749   94.850914   44.131413
H   30.637978   57.040215   66.300560
H   76.947968   46.421532   93.570374
H   23.487892   93.478569   73.531174
H   60.711548   68.782486   48.022511
H   52.309250   94.934685   34.363724
H   96.616119   15.386257   88.018997
H   21.541046   11.242357   65.079414
H   31.060200   65.499283   68.713188
H   76.563927   44.619907   67.598236
H   63.916973   74.079300   85.965744
H   52.301712   29.600266   20.032436
H   92.243736    0.076438   86.287056
H   58.746662   38.990936   95.126450
H   58.278000   66.533714   71.716972
H   22.945169   20.776104   31.732178
H   84.159172   15.386021   37.049099
H   27.425604   33.105534   52.374146
H   54.741234   37.018326   14.147856
H   19.494492   50.439205   59.896580
H   67.323235   90.450264   56.886158
H   24.016582   50.951637   66.207291
H    0.051667   26.739317   35.817963
H   46.552452    7.139287   85.448517
H   70.959229   10.866439   35.939148
H   30.962687   49.104027   58.809280
H   46.174377   58.547504   78.043655
H   65.807846   64.013664   84.447708
H   50.987427   91.726608   78.542641
H   14.492070   50.037560   23.708879
H   30.897633   66.666443    5.313568
H    5.629649    9.620476   70.506424
H   64.349129   11.150788   63.988667
H   65.370049   59.174950   92.591972
H   73.384674    0.956989   31.489086
H   28.102560   30.643154   85.679092
H   45.375835   89.703339   14.784073
H   61.063004   26.034542   93.377419
H   91.212967   69.250214   76.584091
H    8.471649   39.936539   86.156349
H   46.673035   96.987923    9.014502
H   69.282440   85.862251   40.922768
H   93.875893   63.135532   71.572098
H   57.614822   55.879818   71.262100
H   68.839325   16.467003   76.159370
H   44.045891   96.886597   19.019987
H   13.873847   27.991783   67.886055
H   27.416689   81.091248   42.180622
H   69.795120   34.602169   20.376999
H   76.402359   11.463120   23.538158
H   12.386008   97.557091   18.317854
H   16.122091   88.661369   34.557808
H    6.045810   12.843050   58.338722
H    3.418585   20.085606   91.635818
