100
TIME:    9.486, STEP:  9486
H   75.822662   52.110115   90.461319
H   38.495377   18.895863   76.228386
H   42.826496   56.364586   11.988811
H   83.068802   41.827995   20.202192
H   10.196527   33.101715    8.501986
H   80.918701   90.931206   18.175888
H   55.807552    1.877139   32.270733
H   74.305405    9.262062   37.220894
H   20.443886   74.251694    2.976885
H   15.661695   52.589909   79.135994
H   17.890411   47.930786   26.007708
H   93.785774   99.174965   17.705181
H   38.858994   87.813683   82.414810
H   85.391830   75.837379   79.129189
H   95.822945   22.696541   94.719505
H   20.111664   82.048630   45.620178
H   61.299324    9.396736   36.936356
H    3.919461   33.250023   70.693436
H   93.015656   76.303497   63.119175
H   36.945759    4.368063   62.183586
H    1.363571   11.856222   99.777283
H   71.812408   56.676788   11.457718
H   59.090431   17.480013   60.945023
H   37.671604   50.308319    2.560827
H   90.311264   33.873398    6.593017
H    2.877988   46.456223   98.206734
H   44.090790   48.155979   88.182419
H   32.140823   99.214127   80.329796
H   17.435299    9.736343    8.764168
H   64.728355   56.061020   37.497963
H   89.389229   72.683090   58.876968
H   64.709152   90.424316   21.097511
H   38.538666   74.441620   52.370750
H   78.907944    4.387442   72.121468
H   44.875496   41.446663    2.187809
H   97.239609   28.417208   89.604439
H   89.629852   57.137459   55.925007
H   71.916527   85.355843   91.842323
H   44.665745   74.733604   25.048325
H   69.717484   24.135216   84.373672
H   86.950912   81.669647   65.830528
H    0.785333   78.802521   64.236259
H   92.923676   20.392796   86.656425
H   73.636879   71.871498    8.224910
H   33.815918   57.636303   67.856766
H   55.681030   43.841747   21.699263
H   15.854905   40.721096   16.527098
H   56.766598   93.072723   55.517094
H   42.314285   46.819187   66.075745
H   24.894499   75.122002   20.271435
H   44.101154   53.926376   51.505295
H   66.148666   83.508896   51.339302
H    5.631189   77.011780   51.941345
H   57.014023   52.434120   50.406807
H   85.505165   89.912415   81.021301
H    5.410561    2.555372   69.700958
H   97.624008   15.832241   58.185005
H   19.708822   81.051277   69.217430
H   38.419994   39.587646   83.245384
H   33.040607   56.914669   93.806190
H   58.088032   37.428310   74.797539
H   62.241234   39.647720   66.145714
H   18.064796   59.975487   82.986969
H   94.426270   93.437256   69.597183
H    8.837752    3.211258   78.958351
H   18.609543   70.696465    7.070918
H   26.489254   76.316406   25.046642
H   25.103012   60.052010   19.688263
H   29.682886   68.182877   65.288879
H   22.680710   25.101908   81.723969
H   20.801567   49.970997   48.365059
H   92.118324   36.628319   51.365055
H   88.487122   49.093052   18.527416
H   21.386745   49.050549   39.527199
H   19.420866   42.282871   20.536352
H   49.914482   15.535979   57.640816
H   28.314243    4.762147   58.981262
H   77.641563   30.462059   38.326691
H   16.402487   25.655346   23.521189
H   34.322472   92.271431    3.693914
H   96.519814   27.419382   46.948723
H   53.117004    5.994612   93.405251
H   17.883596   65.757729   33.341846
H    2.771226   23.896931   97.018456
H   90.442245   55.512741   28.192381
H   32.970959   57.492355    0.519695
H    0.703336   13.642631   75.872231
H    8.589384   45.997597   97.225037
H   52.546635   66.006950   50.607552
H   27.648767   18.995819   63.315727
H   12.229368   85.646530   33.789085
H   80.166840    8.917540   14.274003
H   93.524506   12.141150   52.571526
H   62.798195   88.581894   68.345589
H   92.582413    0.030686   34.062752
H   77.426285   21.140272   77.484589
H    9.648528   12.060718   91.639236
H   19.967134   55.826488   88.444908
H   56.821831   77.765038   50.486309
H   28.423531   35.208866   83.923553
