100
TIME:    0.159, STEP:   159
H    6.570199    7.440236   99.000443
H   96.847313   13.365475   88.030212
H   82.496277   85.343117   21.472946
H   81.503296   26.099848   31.447580
H   93.746902   85.502075   61.394081
H   25.550762    1.040599   94.491508
H   44.636860   72.074959    2.886524
H    7.389212    2.358231   93.594810
H   49.719475   71.006165   90.078453
H   70.495384   18.669903   13.915163
H   85.465240   72.640259   24.434116
H   49.773136   31.660362   81.611488
H   33.148682   52.087708    9.325961
H   47.209263    4.587033   69.340965
H   82.436790   55.819138   43.129810
H   95.130478   97.829536   19.841206
H   11.282867   92.512032   87.831490
H    4.542472   86.968369   94.033981
H   47.740181   85.023483   71.738266
H   88.345406    2.198370   27.035318
H   54.841263   40.388748   52.925987
H   77.593727   44.309799    5.716584
H   83.621147   93.329079   27.801685
H    4.268718   38.588718   95.265625
H   23.896200   73.563713   37.732437
H   45.926975   22.874737   74.268272
H   48.368404   35.867535    3.121463
H   19.124908   63.860760   72.031540
H   14.628541   63.517666   49.655945
H    7.090745   86.904434   96.029076
H   22.356356   36.300652   96.830101
H   75.796753   48.117371   84.544670
H   81.557922   56.848900   12.120931
H   84.820152   59.151276   65.052895
H   76.819633   46.901047   34.410339
H   86.379356   96.975883   20.097235
H   95.049400   98.712257   20.993725
H   57.416832   56.044086   33.661472
H   43.572750   77.113808   26.887199
H   48.217060   97.297752   50.544403
H   24.375942   61.634335   46.084698
H   17.331161   18.992739   10.270288
H   12.611146   64.453415   12.958210
H   69.206299   15.436433   96.277969
H   42.863220   25.618538   69.713562
H   75.920753   66.193169   83.941811
H   37.758961   34.318005   28.981878
H   56.247906   97.019287   78.415970
H   69.675346   19.281116   38.131554
H   29.224524   33.169476   72.543472
H   43.529934   54.293976   55.097736
H   12.860272   48.985291   63.625305
H   12.177515   22.930664   93.635323
H   73.003433    4.607945   38.832050
H   28.101486   72.444260    1.755360
H   93.765182   12.365116   87.214066
H    6.332504   84.958946   71.109642
H   14.220129   61.871010    9.459404
H    2.817856   45.487106   99.276550
H   48.528008   40.009399   59.082870
H   69.730515   71.175400    1.999601
H   93.267914   26.465408   88.160263
H   85.017998   96.310509   22.650116
H   53.958305   42.659401   22.823729
H   38.632797   48.145535   10.368188
H   91.577858   34.368793   55.587185
H   74.811638   53.858196   74.738693
H   69.382530   26.630913   73.803719
H   64.828667   38.361595   50.261127
H   33.607697   56.142021    1.396412
H   16.983652   84.585976   60.240452
H   60.855785   46.248650   68.263893
H   96.624207   10.442638   57.672604
H   26.691246   39.317982   93.758766
H   69.836472   28.869936   13.451083
H   29.416952   17.762583   85.230820
H   81.391449   12.763065   93.845764
H   39.450439   40.323826   23.220863
H   69.175423   53.034733   19.461361
H   91.727798    0.294240    7.223202
H   13.993471   30.926191   89.491928
H   53.253803   45.265945   73.485168
H   27.856506    9.911244   45.043762
H   61.108719   25.767429   48.907295
H   44.588463   38.939072   32.338905
H   47.637211   14.891181   52.825718
H   77.773964   91.792320   31.124920
H   58.514755   92.564232   94.085594
H   58.982857   85.319588   26.900082
H   52.277473    2.744941   29.895758
H   30.529512   82.016647   36.819530
H   90.051018    7.464845   36.554245
H   95.486168   32.395668   31.215742
H   62.596695   22.876726   37.539288
H   53.842823   35.487537   19.740768
H    7.054371   89.452812   59.236382
H   49.981499   76.805122   28.044701
H    7.449100   17.591461   53.491249
H    1.137793   37.535679   31.733135
H   49.115948   74.619118   82.371933
