100
TIME:    9.042, STEP:  9042
H    5.848838   92.827278   90.867813
H   50.757950   94.835953   48.232578
H   35.194569   24.421322   17.201057
H   82.994278   60.120232   44.540207
H   14.175089   97.513428   20.539822
H   87.802002   91.412224   74.206055
H   79.078148   71.898003   97.549339
H    9.202927   70.849045   77.987709
H   31.358253   16.940777   30.925119
H   27.790464   46.214725   61.751595
H   59.190216   30.065552   68.777428
H   10.731949   76.919411   49.309334
H   67.171310   14.688320   26.538662
H    7.376100   77.205910   45.340878
H   90.430122   62.356819   16.071602
H   37.964661   20.882713   82.475647
H   97.003059   80.028435   96.517281
H   94.422379   54.855186   86.086014
H   86.098480   57.678143   39.728825
H   48.906849   13.797033   31.953974
H   27.711617   56.058380   11.829220
H   29.245691   56.087372   49.268448
H   65.018471   21.089342   73.647964
H   78.926147   44.996796   35.536427
H    6.191264   69.085464    3.315614
H    4.972393   59.545334   39.989567
H   82.377525   66.613724   79.375046
H   69.603149   78.489700   65.655357
H    7.780353   69.452995   29.751122
H   47.703026   67.049911    2.202093
H   71.916756   32.869640   94.004837
H   36.674610    2.693017   62.200844
H    7.262566    6.926991   12.371724
H   60.148239   45.077301   90.826973
H   55.925362   75.063728   75.176056
H   58.642994   93.640228   91.000069
H   47.044167   73.397224   20.939413
H   90.269737   93.478951   60.508774
H   63.408512   84.408165   68.075455
H   11.538469   65.702492   49.440865
H   17.294844   66.432892   55.370083
H   38.203461   77.061371   41.570789
H   89.102631   17.728565   54.585033
H    1.983294   64.419106   64.811958
H   72.328583   75.150658   29.860170
H   61.409210   35.373119   19.895445
H   12.383615   16.573038   12.263248
H   56.739498   88.499664   28.044865
H   29.336960   83.591774   83.785339
H   15.575583   68.360649   51.316784
H   42.880726   96.696342   48.745453
H   44.570599   24.708160   80.484932
H   96.422615   74.437317   77.728104
H   67.296021   59.679878   30.813892
H   20.857506   51.003021   77.247681
H    4.857559    3.022417   84.815765
H   69.474289   28.643593   15.957036
H   52.769714   22.982004   80.653465
H    3.401857   20.825563   17.330778
H   62.338673   22.786098    6.434593
H   30.077314   58.074825    9.411339
H   77.999657   43.780411   86.233299
H   87.922150   90.272850   13.433380
H   63.939205   91.018616   81.649734
H   91.215347   38.674427   37.611118
H   45.884468   92.769096   80.817970
H   62.111954   60.965145    3.609240
H   55.772995   34.659676   98.462494
H    7.552981    0.085888   93.133728
H   13.663314    2.801815   82.665680
H   34.902180   80.181862   53.690132
H   28.680792   51.370506   18.821125
H   17.436630   71.054985   29.912640
H   31.159542   77.151039   65.908669
H   98.034027   41.629093   86.872238
H   39.416771   87.080437   87.517410
H   87.989090   43.192745   51.105438
H   56.782810   59.492516   13.804931
H   95.111061   26.959515   18.565348
H   56.097008   16.458559   41.944786
H   87.827614   22.825998   20.411430
H   19.800800    3.112314   30.550570
H   89.800438   58.332432   91.057091
H   72.223351   85.902565   37.570133
H   12.060959   83.288803   71.233185
H   43.190899   41.181778   69.687103
H   71.049583   45.925102   54.700661
H    1.449163   81.525185    1.826506
H   43.332767   90.728569   54.238899
H   66.905502   37.264343   47.445518
H   94.058556   61.670483   24.412621
H   47.315334   75.524353    5.815428
H   65.063141   98.818657   18.236322
H   21.139822   61.740589   36.485699
H    0.258422   39.802670   23.861101
H   40.753738   38.672668    0.417651
H   44.890648   86.580711   17.174454
H   20.824160   33.858868   97.360680
H   77.973076   75.847740   87.674980
H    0.845826   46.600864   26.695332
