200
TIME:    0.292, STEP:   292
H   11.069028   62.302418   16.228745
H   28.427763   33.637306   92.008171
H   17.047779   71.414185   47.909477
H   19.595352   77.581551   43.139908
H   14.658046   85.047180   52.910866
H   87.926941   51.403633   64.010124
H    4.112609   55.267235   50.657864
H    4.053918   91.131866   23.226551
H   89.540260   86.726654   46.450878
H    9.030697   74.170494   94.021370
H   14.006180   95.705025   94.604919
H   30.992828   43.410797   15.219995
H   12.450450   88.733650   59.160454
H    1.945751   53.426327   44.771542
H   17.111273   72.344887   42.850647
H   27.784687   23.823833   53.201256
H   86.653641   10.153915   12.907368
H   35.327362   85.666824   42.594601
H   66.755554   27.819340   43.249321
H   90.221687   78.990562   35.454945
H   58.709129   79.354050   23.458118
H   88.871376   50.801979   68.570816
H   93.448051   62.163376   47.888496
H    9.709649   88.533272   91.423027
H    5.506649   14.795372   43.554852
H   18.618048   64.643906    5.239111
H   99.902657   59.840153   51.172623
H   95.703644   72.274544    0.868096
H   13.258733   54.949165   38.033875
H   90.699600   22.157358   96.827133
H   13.293602   53.621738   16.258389
H   30.980450   64.725082   94.883369
H   25.866859   10.104462   73.814316
H   94.705544   63.634651   39.199203
H   45.493015   87.652328   33.823551
H   31.362663   48.736328   80.072762
H   87.756958   73.306656   86.345314
H   30.342781   46.100422   12.829422
H   51.145721   44.538570   45.587502
H   89.584061   39.474651   61.665131
H   80.519783    2.794714    3.250273
H   15.927568   42.016479   38.289253
H   75.765579   86.587379   52.259159
H   37.165421   65.759468   20.608099
H   30.553656   77.881668   46.240440
H   40.328026   12.485207   43.253414
H   80.954071   23.664589   97.319206
H   88.849861   65.549812   45.778275
H   89.091385   26.778835   61.203823
H   60.256542   18.036169    3.512443
H   76.971237   69.837944   25.807926
H   19.150309   36.592999   64.659706
H   53.579002   92.934105    8.608518
H   21.632675   83.281052   82.473213
H   74.997849   75.228470   89.091621
H    4.639051   71.069023   80.350983
H    5.282083   16.942238   49.096790
H   67.976791   59.788227    4.364904
H   27.083910   75.481979    8.384164
H   41.900608   95.697182   66.032959
H   50.251106   14.361872   40.717232
H   90.870987   16.548067   49.464695
H   72.879898   26.283686   83.130585
H   25.385948   65.226524    4.828506
H   72.184280   76.854279   20.055967
H   36.699921   18.581366   33.797989
H   84.232765   22.065132   86.909462
H   97.050224   91.568153   88.301064
H   18.372133    6.555953   61.321632
H   44.937634   42.536312   50.979816
H   58.442352   77.491516   74.672272
H   30.679050   22.455004   44.400829
H   79.144180   26.562084   97.754517
H    9.559443    7.821713   62.086346
H   79.778214    1.713339   65.167679
H   54.628120   17.240742   62.537674
H   95.207794   31.886034   71.410042
H   24.629223    6.916830   46.189400
H   11.925900   32.010220   33.786755
H   67.492554   90.376938   91.795563
H   45.575100   29.223196    0.361762
H   28.922905   67.655159   86.249687
H   10.796836   14.236697   88.758263
H   22.978350   63.559975   95.546356
H   37.056488   99.873718   56.308548
H   26.132233   83.954926   26.700348
H   38.185799    2.892466    1.890534
H   74.899055   16.609003   13.403516
H   67.278412   72.180000   77.355568
H   23.183678   88.377937   54.293423
H   39.062996   35.341694   80.523193
H   83.693214   88.991699   99.502487
H   49.729923   16.275635   94.248840
H   57.696095   92.565453   70.532494
H   26.442535   56.222801   70.105522
H   67.118629   28.871910   26.616743
H   80.010979   12.480604    0.568748
H    5.465181   29.246746   49.085911
H   35.839622   69.257126   53.065529
H   68.108574   98.772415   27.263102
H   12.186267   81.864136   71.388405
H   92.505959   77.443283   65.577766
H   24.257307   35.269623   31.229549
H   24.374598   68.035492   92.227341
H   25.269808   26.789368   26.773434
H   89.481728   24.226976   41.456245
H   68.121590   30.742456   56.017227
H   64.444923   36.270912   16.730886
H   74.118065   39.433266    1.647054
H    6.037158   27.335367    5.791766
H   47.878700   95.614906    0.832437
H   88.081940   64.653015   91.103477
H   56.190887   80.878082   92.804298
H   63.048027   18.276291   73.613037
H   62.114967   84.133911   24.949394
H   11.916343    4.276056   81.280243
H   30.436970    9.174922   84.786301
H   40.507290   29.555973   32.939079
H   20.837156   59.665913   80.969650
H   72.154915   47.712704   51.282562
H   41.097298   22.104984   85.815880
H   16.045399   26.248188   49.717751
H   33.490059   19.629452   25.571730
H    3.311168   65.447456   15.588072
H   75.360405    7.664606   91.093315
H   49.627438   63.775295   24.527365
H   94.094093   49.432724   69.046524
H   74.291252   87.977806   35.441753
H   93.107643   50.601391   83.705238
H   70.265610   23.902878   67.387505
H   50.708046   83.329010    5.398556
H   79.704063   86.567123   10.553273
H   92.267952   85.124672   97.761963
H   98.370789   14.336212   50.347214
H    6.994925    0.429892   54.027390
H   60.973099    1.560113   82.915520
H   68.978806   86.697029   57.927315
H   91.661888   62.597340   82.376747
H   47.672424   45.060837   71.537788
H   43.476112    6.595946   94.012604
H   53.192028   61.539474   16.589661
H   54.844437   42.590797   47.459095
H   53.333885   57.718098   97.630310
H   55.330330   24.645317   78.986122
H   42.746181   68.042496   50.768925
H   47.845421   62.871742   27.355705
H   45.961113   96.550072   46.909565
H   41.232552   71.483055   68.526634
H   66.575409   62.621254   97.427521
H   11.119562   89.242516   88.050980
H   74.387337   62.193066   50.951633
H   35.976318    5.670891   46.522766
H   78.591431   29.894222    1.639064
H   11.284506    2.336328   74.667519
H   15.674534   55.252316   61.694054
H   65.045769   43.657841   55.660767
H   59.855572   62.442928   81.371506
H   46.785370   35.825577   10.942387
H   10.001879    1.538398    0.676564
H   63.096684   54.822113   80.236618
H   54.466736   82.296806   82.033287
H   41.162640   22.786823   35.093491
H   67.457695   32.302841   37.210430
H   13.183390   21.707264   68.973938
H   58.456291   23.852812   10.335482
H   12.809608   62.784740   62.017567
H   74.004417   96.725899   52.772953
H   23.677639   33.298454   50.162983
H   94.779533   28.001104   36.734146
H   28.845985   10.067300   89.817780
H   78.371582    6.252220   35.971710
H   44.366554   63.515785   57.617798
H   38.677658   75.219864   88.960892
H   70.584801   73.297760   75.448441
H   69.020996   94.645370   96.786385
H    2.512849   47.941734   23.336634
H   34.883549   54.545555   89.083229
H    2.190864    9.250450   65.545120
H   74.271736   20.170732   68.526657
H   83.826927   55.012901   87.118553
H   80.468445   87.052849   40.510269
H   20.276518   30.169521   71.514511
H   63.241222   90.111801    7.099218
H   52.613182   25.316645   79.103310
H   86.195419   86.078979   78.182602
H    0.349044   36.662552   84.214455
H   33.162659    3.633842    0.417289
H   87.922852   69.427193   27.346043
H    5.112495   61.405293   67.137711
H   50.559174   57.990444   66.360001
H   50.304386   29.303932   78.930122
H   47.226631   86.342346   23.962049
H    5.255521   18.761124   58.997391
H   34.195057   65.606415   34.361240
H   83.110123   51.932690   21.646187
H   75.455093   10.511044   28.853947
H    9.806930   86.977318    5.221906
H   27.398252   96.372704   45.500206
H   11.219878   11.757395   75.691444
H    7.465384   33.231068   97.026352
