100
TIME:    8.701, STEP:  8701
H   28.908615   24.098040   91.180008
H   60.175827   76.359222   26.730480
H   29.333109   99.889282   21.203655
H   82.937042   74.168999   63.232872
H   17.230696   70.180771   29.784691
H   93.088501   91.781654   40.435165
H   96.951302   48.871925   70.882698
H   36.004852   41.348629    9.296229
H   39.740685   49.727036   52.391048
H   37.104866   41.318470   48.400063
H   90.909210   16.345890    1.625472
H   23.747871   59.826748   73.582481
H   88.915680   35.327042   60.425018
H   24.259668   78.256966   19.389683
H   86.288338   92.816628   32.469635
H   51.675217   50.707726   10.781645
H   24.424477   57.473110   65.474709
H   87.127426   71.448341   97.907791
H   80.785965   43.371815   21.764614
H   58.093182   21.038652    8.737085
H   47.947044   90.004974   21.084543
H   96.553688   55.634689   78.307770
H   69.571312   23.861372   83.404053
H   10.609179   40.917450   60.863232
H   18.386898   96.126740    0.798419
H    6.580847   69.598007   72.079941
H   11.781610   80.787369   72.610825
H   98.377106   62.572971   54.382904
H    0.365324   38.514492   45.870598
H   34.627266   75.489578   75.093262
H   58.496517    2.291736   20.983650
H   15.143600   12.113962   93.768944
H   83.243790   31.875275   81.651749
H   45.740448   76.328003    5.192748
H   64.411858    0.882235   54.429508
H   29.000227   66.931961   92.071938
H   14.338456   85.885017   94.070213
H    4.364761   99.717644   36.446358
H   77.800804   91.838402    1.121236
H   43.656342   97.624413   22.610777
H   40.599365   54.732849   47.336269
H   66.940994   75.724136   24.162739
H   86.167999   15.682489   29.955463
H   23.756207   58.693123   31.472088
H    1.908938   88.601051    0.678799
H   65.809624   28.869686   18.510080
H    9.717601   98.027473    8.988455
H   56.718685   84.987473    6.945976
H   19.370140   11.833977   97.386627
H    8.417866   63.168224   75.159447
H   42.904140   29.618458   45.150009
H   27.997942   56.351406    2.869411
H   89.351402   72.460083   97.531662
H   75.194550   65.244171   15.767402
H   48.008583   21.118647   74.349472
H    4.432844    3.381116   96.424210
H   47.856743   38.482933   83.524895
H   78.161560   55.185265   89.436546
H   76.506416    6.416435   43.510185
H   84.842522   96.575165   16.133446
H    8.566015   73.933350   35.997440
H   90.102409   46.954391    1.661127
H   64.772903   13.542159   36.816772
H   40.521992   89.161057   90.906311
H   77.681702   65.910645    5.854817
H   66.832741    9.720906   60.655384
H   89.470627   49.177189   87.145920
H   79.328094   15.156785   82.160721
H   90.558197   24.587959   14.520424
H    6.737733   85.673050   83.388931
H   45.732738    3.383400   57.779884
H   56.760269   62.692772   93.826035
H   39.670105   87.923912   38.656696
H   38.665226   98.734108   86.170113
H   81.607376   41.126980   61.017307
H   31.354342   65.226799   10.462932
H   57.019363   72.707397   45.056664
H   40.764614   81.788429   94.970947
H   78.757256   27.961140   14.759384
H   72.820244   35.035240   71.322319
H   81.151848   19.298197    0.029831
H   94.212540    0.898658   59.077438
H   68.232979   52.629673   58.583195
H   48.763596   56.722755   68.714561
H   28.664520    4.621666    4.289320
H   51.039997   28.655308   46.007126
H   48.274967   70.718575   38.440514
H   95.965050    8.811245    5.362016
H   36.256351    9.714851   57.027840
H   97.053116   51.294899   35.256912
H   80.103447   43.258793   17.211327
H   22.084787   49.877548   99.318703
H   43.204304   88.589073   91.866272
H   88.183365   41.052479   13.493526
H    6.154700   70.347794   16.026312
H   12.588561   52.138672   18.031212
H   71.957939   67.011299   36.786476
H   21.482370   16.986183    4.207350
H   94.217613   74.375221   16.237064
H   79.663483   55.350124   59.546032
