100
TIME:    9.649, STEP:  9649
H   64.799469   37.162148   90.312088
H   33.993576   27.729092   86.505424
H   45.628307   68.091652   10.075235
H   83.096161   35.112602   11.267446
H    8.735929   46.166885    4.082573
H   78.391724   90.754616   34.318413
H   47.265324   12.884151   45.017544
H   61.493927   23.363293   22.254272
H   16.437035   58.579956   92.717049
H   11.209017   54.930347   85.518105
H    2.728498   54.489487   10.306746
H   87.565331    7.345053    6.103070
H   28.465057   77.947029   66.215790
H   77.320923   75.334969   91.532768
H   97.802742    8.136574   86.879906
H   13.557316   67.792099   32.089905
H   48.191872   20.177620   51.774887
H    7.405249   25.318398   65.042557
H   95.555069   83.140762   71.709808
H   32.554638    0.906538   73.281395
H   91.690887   95.629158   95.352585
H   87.439377   56.893173   97.576828
H   56.914146   16.154966   56.281555
H   22.526295   52.258270   90.455536
H   84.481308   20.946266    7.796192
H    2.109060   41.650986   82.868279
H   30.034565   41.379650   91.415756
H   18.387331    6.822408   85.717033
H   20.979534   24.524641    1.059362
H   70.978645   52.026810   50.456184
H   95.803673   87.300262   45.980927
H   75.001114   85.920029    6.007795
H   50.020744   62.515579   67.055077
H   85.794952   89.449486   65.254356
H   40.818901   29.105263   12.105216
H   11.408590   41.184986   89.092079
H    5.264025   51.168221   68.768814
H   65.178749   82.373711    3.345227
H   37.784954   71.181908    9.252850
H   54.364887    8.875253   97.197586
H   75.810822   87.263321   69.670738
H   87.048470   79.442856   72.555656
H   94.326447   21.370880   98.430748
H   63.230412   74.607399   24.161533
H   19.671820   51.197514   81.802078
H   53.578117   46.950726   22.361475
H   17.129551   49.586658   18.092157
H   56.776546   94.751572   65.602615
H   47.078484   33.320004   59.573402
H   28.315619   77.604210    8.874348
H   45.008976   38.258369   51.811218
H   74.070343   68.384338   40.639442
H    9.012203   77.956909   42.473885
H   53.239723   49.774078   57.599739
H   72.527046    4.196573   82.406662
H    5.613577    2.383912   64.152054
H    7.957507   11.128668   73.687614
H    7.571776   65.658104   65.019066
H   51.276241   46.475899   70.732368
H   22.284786   69.443314   89.170082
H   68.370758   29.848444   62.090336
H   56.456047   38.130539   58.770332
H   29.136303   48.860977   71.813339
H    5.618978   94.325180   65.172485
H   15.307536   90.193062   94.137627
H    8.596537   62.593224   16.709040
H   13.411026   81.952362   32.916637
H   13.843476   69.373970   27.480606
H   37.807266   56.470734   55.065472
H   25.991150   33.288471   81.378250
H   15.625095   38.879406   46.410133
H   78.695000   31.216209   63.312237
H   77.859390   41.030849   14.347706
H   17.798985   38.734959   29.842249
H   27.272280   42.522884   32.895161
H   53.768372   25.982769   46.673584
H   43.118111   90.654465   61.872612
H   85.299599   19.804482   47.329048
H   24.218458   25.176563   25.340563
H   26.329109   83.392189   89.651344
H   99.710869   29.105692   56.691017
H   65.347862    7.052752   79.768028
H   28.193590   68.483681   48.865597
H   13.985311   37.845413   82.130180
H   82.505646   45.316536   12.391860
H   29.219044   63.480247   11.839154
H   11.589815    1.790962   83.644676
H   11.210564   32.954811   95.536240
H   55.929203   56.931221   49.274422
H   13.237350   12.289131   69.143051
H   18.900167   94.448669   37.231346
H   92.227188   21.176420   17.379251
H    3.973095   17.032194   65.176567
H   77.631752   98.401291   80.749168
H   89.764435   85.430916   37.808449
H   90.889404   14.704002   69.065475
H   96.710442   21.414520   82.265045
H   19.652506   63.891178   85.171776
H   49.056847   78.468910   36.832920
H   38.547607   31.026524   68.221970
