100
TIME:    9.629, STEP:  9629
H   66.152008   38.996254   90.330399
H   34.545944   26.645260   85.244438
H   45.284527   66.652748   10.310030
H   83.092804   35.936577   12.363751
H    8.915144   44.563797    4.624832
H   78.701782   90.776283   32.337669
H   48.313450   11.533595   43.453518
H   63.065887   21.633099   24.090668
H   16.928673   60.502869   93.975899
H   11.755358   54.643177   84.735023
H    4.588862   53.684738   12.233244
H   88.328575    6.342588    7.526658
H   29.740387   79.157661   68.203400
H   78.311218   75.396614   90.010857
H   97.559822    9.923073   87.841820
H   14.361530   69.541367   33.750061
H   49.800148   18.854836   49.954208
H    6.977545   26.291603   65.735916
H   95.243484   82.301834   70.655426
H   33.093426    1.331262   71.919701
H   92.877716   97.620125   95.895493
H   85.521957   56.866623   99.280014
H   57.181175   16.317549   56.853760
H   24.384586   52.019012   91.940826
H   85.196640   22.532417    7.648563
H    2.203407   42.240585   84.750298
H   31.759190   42.211102   91.019028
H   20.074877    5.888875   85.056023
H   20.544659   22.710142    2.004735
H   70.211739   52.521805   48.866219
H   95.016624   85.506744   47.563263
H   73.738297   86.472702    7.859278
H   48.611900   63.978897   65.253319
H   84.949921   91.282372   66.096947
H   41.316643   30.619545   10.888366
H    9.670080   39.618366   89.154945
H    3.345785   51.900642   67.192886
H   66.005470   82.739616    1.933923
H   38.629223   71.617699   11.190945
H   56.248585   10.747621   95.624100
H   77.177704   86.576981   69.199547
H   88.733955   79.364120   71.535149
H   94.154327   21.250870   96.986046
H   64.507362   74.271706   22.206120
H   21.408270   51.989140   80.091568
H   53.836143   46.569256   22.280222
H   16.973148   48.498859   17.900126
H   56.775326   94.545578   64.365128
H   46.493919   34.976345   60.371284
H   27.895849   77.299644   10.272778
H   44.897587   40.180824   51.773682
H   73.098358   70.240112   41.952309
H    8.597355   77.840942   43.635536
H   53.702827   50.100464   56.717171
H   74.119453    2.443834   82.236679
H    5.588667    2.404950   64.832901
H    6.689616   11.705793   71.785454
H    9.060996   67.546837   65.534203
H   49.698788   45.630714   72.267708
H   23.604519   67.906143   89.738930
H   67.109161   30.778543   63.649632
H   57.165886   38.316696   59.675331
H   27.776821   50.223129   73.183578
H    4.245591   94.216232   65.715393
H   14.513698   91.790352   92.275139
H    9.825136   63.587486   15.526467
H   15.015717   81.260834   31.951057
H   15.225045   68.230171   26.524490
H   36.810410   57.907806   56.319897
H   25.584961   32.283985   81.420670
H   16.260265   40.240337   46.650002
H   80.342033   31.880272   61.846325
H   79.163406   42.020077   14.860554
H   18.239201   40.000675   31.030527
H   26.308916   42.493435   31.378744
H   53.295502   24.700954   48.019257
H   41.301704   92.385422   61.517845
H   84.359962   21.112160   46.224464
H   23.259443   25.235310   25.117327
H   27.309868   84.481667   91.374367
H   99.319328   28.898783   55.495644
H   63.847023    6.922919   81.441307
H   26.928560   68.149208   46.960842
H   12.609349   36.133987   83.956963
H   83.479462   46.567604   14.330604
H   29.679401   62.745537   10.450261
H   10.254061    3.245153   82.691002
H   10.888947   34.555153   95.743454
H   55.514164   58.044807   49.437996
H   15.005652   13.112038   68.428024
H   18.081686   93.368652   36.808983
H   90.747391   19.672285   16.998240
H    2.691071   16.432066   63.629936
H   75.811684   97.196457   79.227257
H   90.110199   87.222298   37.348854
H   89.237488   15.493759   70.098495
H   98.297966   20.266830   83.415253
H   19.691111   62.901646   85.573387
H   50.009605   78.382545   38.508183
H   37.305389   31.539753   70.148544
