100
TIME:    6.415, STEP:  6415
H   83.502274   33.733910   93.272903
H   23.308491   52.484486   82.592140
H   90.034134   35.424248   48.041531
H   82.553345   68.352264   88.534790
H   37.712479   86.947968   91.768967
H   28.540302   94.258247   14.044861
H   16.760490   94.508507   92.114433
H   15.679947   43.580509   19.189426
H   95.934929   69.517273   96.284935
H   99.542915    8.493893   58.890934
H    3.547350   24.363775   21.824570
H   10.996948   45.241322   36.301857
H   34.712357   73.662636   87.594902
H   37.447960   85.303047   45.425007
H   58.522591   97.013420   42.404835
H   43.591110   50.649696    0.539569
H    8.250953    6.274061   57.371101
H   38.248959   82.685257   77.147499
H   45.181080   47.471603    1.330495
H   19.686829   69.580360   53.095634
H   83.601532   17.583477   83.128365
H   77.392639   52.599991   72.981781
H    0.092715   42.449440   48.810242
H   23.011627   13.570284   30.639402
H    0.147886   77.418701   83.916115
H   17.303133   37.016243   87.179375
H    8.905891   75.814224   27.250631
H   91.262894   55.870216   78.819595
H   50.659035   31.110645   53.931335
H   46.972263   32.068748   93.363083
H   68.527916   97.301460    1.844612
H   70.804291   75.270462    5.395360
H   22.220741   99.130928   75.710815
H   49.151146   85.826309    1.498347
H   21.304672   73.964546   15.344108
H   30.282282   87.878807   99.257545
H   95.081215   69.604126   13.942103
H   98.849998   41.556431   75.129631
H   74.294281   41.643730   22.650995
H   58.971340   11.632162   42.753475
H   96.832336   76.296135   93.480324
H   59.592728   66.759567    7.457485
H   66.494781    1.969503   64.835075
H   69.723114   20.318319    7.960860
H    0.202419   78.788101    5.058803
H   95.319450   85.273148    9.222857
H   91.851852   73.707352   87.042610
H   56.582012   61.442398   65.501770
H   52.544807    1.160513   88.577011
H   60.424397   28.372927   34.994873
H   43.061108   50.316849   21.050793
H   16.891716   68.476135   52.931404
H   41.939205   59.205078   30.295115
H   28.135529    2.533496   14.892669
H   30.023518   20.784607   54.912273
H    1.585634    5.785766   74.245056
H    2.935987    4.444251   66.107323
H   48.381256   71.069878   48.320297
H   96.214920    9.819085   19.003426
H   35.694801   20.866032   81.152733
H   64.363792   80.243912   14.232695
H   71.237038   68.232162    5.094302
H    9.574362   69.534950   93.574646
H   83.546555   76.708328   52.974697
H   86.945267   48.489254   92.969673
H    7.263645   23.364281   25.488707
H   72.880936   70.143494   76.778152
H   37.237938   84.417641   72.876694
H   76.625618   88.845352   57.896320
H   60.348991   70.799248   88.224976
H   18.327160   58.924622   85.196815
H   45.020756   38.623734   26.297707
H   88.720825    0.995689   97.265442
H   88.990578   43.413639   21.995813
H   71.462639   37.786961   87.698257
H   77.313683   18.713684   64.279938
H   49.401943   70.566917    4.512537
H   33.368694   31.258772   68.717522
H   69.134071   34.675846   89.253334
H   84.927689   59.564339   68.263206
H   36.404190   95.647781   63.398518
H   22.673780   86.073059   50.325092
H   23.637840   14.399632   40.875893
H   91.491463   61.104637   77.505577
H   39.972389   47.623940   25.889969
H    3.646799   44.688324   87.260178
H   95.598061   36.930031   29.435415
H   59.199852   91.738953   29.064247
H   88.811874   36.994789   75.724373
H   99.166000   45.346439   53.536339
H   86.550865   19.823795   68.934860
H   52.943935   77.948792   55.754898
H   96.667465   20.000675   15.086375
H   67.251259    2.363782   59.352585
H   45.681145   75.113480   63.495975
H   23.774323   42.409760   36.105988
H   53.409660   35.823227   68.256790
H   25.894892    3.873801   50.099365
H    3.117392   64.503731    7.712975
H   37.671146   14.016014   79.763466
