200
TIME:    0.837, STEP:   837
H   27.815607   60.493679   25.547907
H   33.285095   41.593678   14.133415
H    5.625077   95.268745   74.753654
H   37.966187   83.951637   28.888294
H    8.871641   98.860123   45.075077
H   70.197144   36.611477   47.879086
H   12.008689   54.880539   61.206760
H   16.267063   14.664989    3.881634
H   11.672760   78.556145   33.155609
H   89.845673   66.535721   72.524406
H   33.002151    7.347118   11.827431
H   33.246475   57.957630   41.188251
H   25.826801    6.821723   36.823570
H   76.186661   55.725712   71.033592
H   90.798904   76.540329   41.509686
H   11.899106    1.368460   41.444454
H   12.291013   35.678810   86.446236
H   22.386297   11.867210   32.891861
H   84.888680    8.088704   51.272221
H   91.955582   71.506126   14.328003
H   65.249695    6.559783   98.489525
H   76.738274   71.633659   47.568657
H   77.127823   58.200783   34.811523
H   21.253351   93.502106   89.714081
H   29.195091   36.714405   24.107792
H   18.166903   88.831108   87.239044
H   10.457094   70.775749   73.085388
H    8.211680   94.756958    2.302142
H   36.213081   38.383614   34.842594
H   66.071648   36.757545   77.974670
H   12.582061   76.391060   16.924711
H   21.069809   77.498520    8.301738
H   12.698410   21.831379   80.471306
H   76.668053   64.229248   48.725227
H   19.338566   65.132492   29.677422
H   13.560029   36.310085   86.322266
H    3.399295   61.543617   90.436806
H    3.385098   60.198189   88.325645
H   30.975166   25.023275   57.701893
H   84.357430   37.233479   40.376068
H   80.681946   77.335258   21.340038
H   43.054489   30.588032   22.128473
H   65.952652   74.067581   72.496246
H   35.951279   92.229424   40.099426
H   49.175266   94.509590   65.907875
H   32.658558   98.301712   49.180672
H   91.224380   96.963394    9.267909
H   75.581619   65.541496   26.185684
H   10.168487    6.097093   61.596756
H   40.753349   20.495638   80.456017
H   64.006531   62.939789    4.209330
H   98.317116   45.973492   76.377007
H   68.279381   77.349693   15.729234
H   13.521258   94.782135   90.543930
H   51.929153   63.107841   71.465775
H   97.652885   57.641788   98.197205
H    3.726746   19.004616   43.250614
H   73.931076   72.457710   94.527596
H   15.583866   86.010086   21.565388
H   29.295570   92.636879   55.958076
H   48.486027    3.728778   24.793623
H    0.666397   17.839132   53.643051
H   87.894508   37.573235   64.743820
H   38.591301   66.004074   16.996883
H   80.945229   84.979050   42.342396
H   15.320665   39.754662   43.594284
H   63.875099   10.569000   98.169380
H   93.998238   92.807243   99.091125
H   37.757553   13.920846   54.423477
H   41.800407   52.035309   50.950710
H   58.203266   86.917747   89.250290
H   15.361944    8.129871   40.585846
H   96.441544   35.984158   79.504967
H   27.315041   95.842300   77.953102
H   86.414413   10.535619   39.541801
H   68.403641   98.000046   58.976330
H   92.904251   52.175091   63.700989
H    4.443327   16.840984   27.553154
H   16.071949   56.287834   21.707260
H   59.279266   87.337425   65.949310
H   68.706161   20.012142   92.270340
H   52.887520   57.853401   69.401390
H    8.670528   20.214890   72.812256
H    5.205974   81.381248   13.308933
H   17.648930    5.636903   40.863583
H   41.486118   64.886246   15.355220
H   62.612087    4.028125    3.140014
H   70.366814   96.324936   33.959629
H   83.959030   73.510262   79.320740
H   20.453938   12.807118   48.297558
H   16.217474   40.046494   78.099068
H   79.896942   93.773422   11.394260
H   75.620766   10.129042   78.726952
H   33.257332   72.985336   85.497208
H   40.251740   48.850632   92.804153
H   44.548897   41.056988    0.992116
H   87.403938   93.629433   24.040497
H   93.948074   38.309261   54.959499
H   23.490303   63.797646   54.996929
H   77.584702    7.627869   27.396158
H   36.502285   96.932800   97.051704
H   12.771173   85.688637   62.571518
H   35.554649   15.351854   38.845070
H   50.562111   69.041733   13.870519
H   24.547352   19.627178   44.442940
H   11.058315   97.544014   15.939901
H   90.474030   36.915295   52.767342
H   61.233139   57.196148   95.656898
H   87.968430   32.553822   28.000584
H   23.544500   19.736586    8.459135
H   55.049206   90.878922    1.215884
H    9.964913   78.357849   97.311401
H   46.725155   87.202431   80.949783
H   61.201866    6.526799   59.559589
H   43.927788    6.828207    5.839897
H   89.674835   88.333672    5.866784
H    8.029215   16.849125   91.139755
H   37.742207   56.381439   22.045067
H   41.534260   80.127525   54.034767
H   86.537506   58.590084   71.613983
H   46.785469   25.726620   67.957184
H   92.530464   13.337536   65.748772
H   46.629402   96.643570   41.739777
H   95.281776   45.836002   91.721458
H   59.052650   94.171127   73.068298
H   69.594002   78.686333   14.004507
H   80.547264   51.977432   47.998627
H   62.370209   92.252251   40.044682
H   99.814529   30.873665   71.285233
H   96.681511   21.319708   76.672363
H   72.708130   63.869476   26.226078
H   58.785065   91.972549   23.405712
H   90.488319   11.639908    1.816636
H   71.647194   28.309372   57.054493
H   33.918270   90.575394   28.983635
H   46.457451    0.860656   74.886383
H   69.881096   88.085808   85.058395
H   96.310555   45.580643   73.765488
H   61.917801   52.682487   71.408890
H   43.771332   80.458229   78.869095
H   80.173424   45.512386   34.194717
H   29.755037   59.150112   60.163925
H   35.814068   67.748543   79.247704
H   30.357262    4.917251   88.017342
H   68.363747   49.967583   68.590195
H   67.814713   72.260803    1.253667
H   58.850975   94.163368   43.007263
H   26.350998   51.196075   65.399803
H   81.145111   39.866489   92.009621
H   28.492662   95.192642   67.655891
H   55.178242   71.448822   46.837273
H   58.918194   90.590210   29.443699
H    3.909674    9.515766   82.507851
H   25.691175   14.846133   61.199257
H   37.285843   69.646118   71.553207
H   81.224625   45.009197   72.429024
H   65.560379   78.787910   87.824753
H   54.533840   27.081261   23.710627
H   85.058044   99.484741   80.464478
H   56.986473   32.585022    1.151369
H   59.820187   60.155350   67.542587
H   15.573517   19.962488   30.372059
H   90.917244    8.540808   36.983818
H   33.188530   37.717720   45.657398
H   53.237976   42.345608   15.690492
H   22.199457   45.443718   59.038345
H   64.619766   87.910896   58.550522
H   24.153732   58.094807   72.699448
H    2.185421   26.228748   35.447239
H   53.717182    5.954498   83.680542
H   67.959900   12.733533   35.925972
H   25.538681   43.272465   59.291401
H   49.207844   51.800812   73.626114
H   63.874531   60.259113   88.090263
H   43.690338   90.545563   71.160507
H   19.336754   50.888905   23.868259
H   29.284775   71.571495   11.880589
H    7.021135    9.770203   72.513962
H   60.333504    7.500896   62.153015
H   57.902164   60.859077   94.806732
H   70.518303    6.583480   27.839045
H   31.269283   30.834805   91.410637
H   38.146423   89.536842   17.894798
H   64.482079   26.325012   99.153282
H   93.243263   62.440636   75.937271
H   11.758304   41.261322   86.942116
H   52.139862   94.298828   12.493256
H   61.739799   92.512520   46.416546
H   89.328987   63.835655   73.366425
H   60.469814   55.025776   73.245682
H   76.338844   11.272678   75.038216
H   42.758839    1.153262   17.020235
H   17.361195   31.726870   71.483093
H   24.673992   87.357018   45.344650
H   64.407349   27.589750   19.863436
H   76.785660   11.848367   21.387182
H   13.429605    1.838259   23.616987
H   11.559169   85.541061   30.130085
H    3.952180   13.282349   51.317131
H    1.781060   14.766444   89.454597
