100
TIME:    7.898, STEP:  7898
H   83.212883   97.737083   91.915176
H   82.353409   32.845119   76.100174
H   15.530321   42.117294   30.629128
H   82.802261    7.252254    7.245729
H   24.426157    5.816803   51.557617
H    5.539430   92.651604   60.912308
H   39.035908   94.647766    8.087055
H   99.119064   71.878563   83.025780
H   59.479958   26.932796    2.935490
H   59.037392   29.788576   16.957893
H   65.602310   84.035873   78.973755
H   54.398270   19.576275   30.740280
H   40.120552   83.930313   40.225361
H   64.019432   80.732033   58.282436
H   76.535103   64.544540   71.085480
H   83.961365   20.941162   77.437775
H   88.996773    4.363032   92.374451
H   69.961075   10.522280   25.742634
H   68.275848    9.682721   79.458710
H   79.729965   38.090405   54.065163
H   95.598213   69.947144   42.877697
H   19.569292   54.568695   46.690613
H   80.292519   30.389055    6.378497
H   85.220032   31.311251   20.499340
H   47.106026   59.810341   94.868446
H   10.367641   93.270432   47.645836
H   81.025955   14.165822   56.679363
H   66.130424   25.091635   27.837675
H   82.905052   65.660324   83.829796
H    3.838158   95.363632   11.257130
H   26.890894   30.284908   84.514458
H   64.441826   34.297939   68.106651
H   26.681078   90.627480    9.311170
H   11.810790   49.918098   39.020386
H   84.396187   61.680595    5.571728
H   59.197254    4.033818   94.596016
H   37.320080   15.293303   30.796721
H   37.553505   14.413370   79.780952
H   11.693803    9.333796   78.937614
H   19.290470   72.799622   59.433762
H   95.479691   27.182409   28.417936
H   34.613609   72.575165   83.166771
H   79.257416   10.865604   71.953407
H   75.028915   45.209984   52.959385
H   71.562019   20.278522   31.963650
H   76.175499   13.556739   15.247770
H    3.439884   54.358467    1.276933
H   56.669674   76.716827   57.261028
H   95.898567   78.337410   29.419003
H   91.560303   50.946049   31.303848
H   42.959278    7.142344   36.683319
H   88.971024   30.862692   55.582367
H   72.699837   67.804016   44.167946
H   93.794312   78.342422   80.333633
H   11.944214   50.748360   67.524658
H    3.432709    4.225794   23.760239
H   96.951630   61.652992    7.152966
H   37.954025   31.019072   10.120105
H   13.172569   72.487694    5.156357
H   37.832001   34.854877   38.972679
H   57.912640   11.278522   98.606544
H   18.602486   54.428604   37.994850
H   10.255343   68.337677   91.880890
H   85.381523   84.786804   12.707007
H   45.808655   30.043844   31.075724
H   16.161568   49.640312   13.175664
H   53.897339   21.417286   48.378033
H   34.796989   69.232353   43.772675
H   50.538467   82.286430   64.885437
H   90.429024   45.339642   85.092072
H   71.235222   58.022430   67.410591
H   22.886589   89.354881   34.966572
H   92.026352   27.645235   59.247540
H   56.339901   49.554600   33.880615
H   42.925262   39.944584    0.133482
H   12.368909   13.760113   64.492805
H   84.089561   42.208961   30.813028
H    3.042419   34.291714   50.617634
H   40.250458   30.319805    5.797987
H   12.200170   78.777763   40.501381
H   65.431496   10.990792   52.035583
H   33.956284   95.690292   26.257858
H   17.440355   39.200596   82.108810
H   93.519325   88.007935   42.056606
H   67.763229   54.852398   82.130547
H   69.521530   99.159821   90.244186
H   94.644341   29.103539    0.150370
H   83.050591   73.069031   13.687988
H   19.590252   54.424034   63.595345
H   68.050354   84.330826    6.552461
H   47.241413   99.901680    0.253106
H   62.670918   89.484756   84.014946
H   91.730621   64.500053   29.769045
H   10.577456   92.335411   59.348782
H   20.040092   42.275291   97.574921
H   46.264023   83.848938   59.506966
H   35.695885   20.929226   82.967308
H   23.032351   77.251762   20.328981
H   32.470390   70.907677   83.497078
H   29.786501   75.956772   36.900990
