100
TIME:    5.270, STEP:  5270
H   60.933754   38.735420   94.321182
H   54.930367   90.436890   10.395492
H   70.343964   53.048676   61.485706
H   82.361160   15.526237   51.297188
H   47.968140   95.171249   22.813351
H   46.299892   95.498711    0.651515
H   76.768684   17.192654    2.573888
H    5.674690   44.523434   24.319736
H   24.081276   79.604324   68.360405
H   30.824102   92.052757   14.056166
H   10.052460   78.292526   32.116741
H   54.701439   87.848656   17.804663
H    7.777359   42.903481    1.368102
H   94.142372   88.832253   58.290466
H   44.602516   99.290176   97.447479
H   89.628021   50.795609   95.584686
H    0.324966   30.540333   53.137238
H   13.763114   38.397747   16.840487
H   27.350464   99.434509   41.005558
H   50.532433   93.900429   75.138741
H   51.547447   31.572250   14.207817
H   67.620377   51.079987   70.489105
H   15.381846   51.761650   81.568954
H   29.398678   99.872772   15.676757
H   41.098053   68.223282   75.459999
H   22.522688   70.865143   94.851105
H    7.640490   23.408821    4.530124
H   87.874550    2.425485   40.971413
H   25.762413   27.227407    8.056965
H    3.069102   60.407219    2.338905
H   23.462368   94.626968   92.433311
H   98.508369    6.909337   11.393715
H   41.569096   82.904305   72.560173
H    0.770941   90.758751   49.734001
H   49.773788   60.548508   45.633713
H   30.749327   98.197289    2.858086
H   85.260437   11.536427   23.720562
H   46.172489   62.513271   94.331398
H   22.623440   66.592766   33.609741
H   66.817436   18.823292   52.667683
H   75.084671   37.009155   66.504616
H   57.982903   48.378937   50.385746
H   56.634434   95.102570   82.131264
H   42.835827    1.099518   96.009079
H   99.522621   23.965019    7.078338
H   10.096642   63.434010    4.571003
H   82.906540   11.438149   76.053154
H   56.520863   49.649261   94.655693
H   19.078506   95.989075   34.251236
H   36.405468   10.944120   15.074043
H   43.142551   60.859055    8.981214
H   61.244484   74.723358   28.096169
H   18.186954   52.565979   96.795250
H   54.648247   21.217491   64.366905
H   21.189850   20.442308   45.172016
H    0.159473    6.990194   13.223572
H   30.347000   37.483269   57.208321
H   33.640030   79.201057   77.811874
H    5.911146   61.439514    6.901829
H   11.253979   32.857944   13.719246
H   92.135925   33.492947    3.506019
H   11.874197   78.889664   56.905083
H   31.840261   47.668015   72.090729
H    4.920542   70.471069   84.059265
H   41.498055   39.937977   86.340935
H   77.601616   80.285820   57.786858
H   64.746552   30.560719   21.498085
H   16.331017   18.934282   18.139074
H   19.557508   71.117744   29.707314
H   37.155823   13.207413   90.636017
H   54.686607   36.829651   98.929268
H   39.431503   76.623840   42.466705
H   63.377533   57.628952   26.625099
H   14.196850   15.881096   90.028465
H   16.259600   36.153393    0.899294
H   50.246178   45.330719   41.325191
H   45.437031   69.778511   84.250984
H   79.574509    6.127547    5.481072
H   14.229579   38.039074   76.481804
H   41.075264   21.936371   66.906036
H   13.997427   83.802231   94.964943
H   36.740448   78.644669   46.103661
H   51.214973   95.252380   31.831884
H   12.717924   63.124435   82.083771
H   95.723351   19.242744   36.884926
H   30.002094    2.629187    7.748004
H   19.126120   20.181000   74.837433
H   40.784164   83.366028   40.937889
H   65.050888    0.747580   85.088997
H    0.399289   92.452560   12.607899
H   39.692802   57.995174   44.754559
H   68.225533   91.834000   33.941963
H   23.270479   85.647041   26.541767
H   56.592575   32.897900   82.147194
H   65.476143   77.675468   37.184177
H   29.202011   87.625519   95.246384
H   44.294273   70.115211   34.106705
H   26.209433   61.108582   71.701942
H   57.662415   59.567196    3.618456
H   66.549591   43.396702   90.064682
