100
TIME:    0.580, STEP:   580
H   78.099525   68.832375   98.615005
H   85.136452   36.191669   14.586406
H   89.729645   15.631608   16.529716
H   81.573959    8.753576    8.370879
H   89.976044   19.247078   49.978722
H   19.022423    0.582391   36.184803
H   22.573116    0.500984   35.809528
H   74.299438   38.779064   54.941147
H   39.370491   30.528854   63.579605
H   58.990089   24.713234   30.402231
H   46.304840   89.580215   83.880699
H   33.703625   52.763039   51.643761
H    6.369172   26.616745   67.480827
H   26.363544    3.288994    1.377338
H   87.556679   18.215956   22.891878
H   78.203369   61.007191   84.895004
H   77.435417   20.353317   26.162424
H   13.538566   66.495239   79.438766
H   54.295822    2.683352   93.920166
H   76.949318   93.371460   55.756798
H   29.858521   98.475861   41.500992
H   17.962147   44.865471   69.870491
H   78.000191   89.905113   15.755190
H   65.153244   43.637943   64.000259
H    8.840067   40.176151   40.841629
H   43.999531   10.327783   34.810112
H   12.064333   18.366734   11.475576
H   83.602104   83.511627   85.945816
H   23.782791    1.714428   29.754730
H   23.232969   76.484787   29.496513
H   38.917301   74.054207   63.515495
H    2.378936   36.486809   45.570564
H   11.211784   26.046370   50.047935
H    2.608185   20.569031   47.316368
H   66.355019   15.076774   60.045113
H   22.984009   30.047831   18.648634
H   35.428745   83.294777   54.167004
H   40.017563   48.338558   63.369030
H   24.645206   68.126701   86.536484
H    8.564278   57.886318   83.667595
H   95.605789   76.081276   56.006489
H   79.494072   37.888786   30.049398
H   16.236715   66.978027   43.366905
H   42.322067   22.491537   37.441414
H    6.345146    9.008147    5.739336
H   70.543907   74.107475   85.592766
H   42.204334   57.029881   32.579292
H   56.270390    1.354996    4.465050
H   81.983635   84.413620   21.337156
H   38.054241   39.577366   43.098366
H   43.500370   13.648222   59.532307
H   33.319054    9.918945   35.986259
H   20.910524   25.371765   69.185768
H   63.258053   97.739113   57.410114
H   94.585403    9.350340    5.327753
H   94.291946   11.922392   72.882233
H   33.021095   72.811256   11.150331
H   82.870789   22.113182   98.615067
H   36.020050   63.275024   66.957657
H   20.745102   72.369263   47.112999
H   96.287125   51.597237   69.173370
H   78.325806   22.546799   69.113251
H   13.573593   67.601875   93.767677
H   82.867195   44.949539   11.392309
H   55.344704   14.520166   49.575882
H   65.715034   13.439564   80.479988
H   41.034508   68.412628   95.064072
H   40.301308   50.708237   93.929955
H   85.809288    8.111214   23.855480
H   42.135490   77.316551    0.511111
H    3.613938   55.940678   55.191227
H   26.143698   32.276558   99.086006
H   69.174667   89.617805   46.877155
H   17.424698   12.675713   68.737480
H   90.136154   29.468969   45.366138
H   39.370861   44.745537   56.902004
H   19.614857   76.274529    1.297110
H   59.229782   12.795582   46.472141
H   89.353050   51.803562   24.155663
H   71.081223   77.367134   70.953674
H   22.231991   35.282024   14.654043
H   84.841164   48.015396   38.279572
H   54.493664   16.938135   85.142059
H   90.068207   61.792942   10.453529
H   24.088568   12.603787   91.528053
H   37.943707   30.358215   82.060143
H    5.891623   61.182198   51.199764
H   65.292023   58.857765   89.710884
H   67.719429   61.878593   23.455238
H   15.056374   85.420029   44.946850
H   47.758549    4.750601   45.710278
H   21.201082   39.127251   44.574547
H   22.497566   45.009094   63.785210
H    3.286321   48.414566   65.923729
H   46.564487   97.776001   29.413631
H   41.827225   72.827629   37.491310
H   16.564852    0.965575    3.832496
H    8.994720   21.176025   46.755737
H   81.082268   39.350445   96.468452
H   75.261429   63.807552   41.823959
