100
TIME:    2.410, STEP:  2410
H   54.343658    1.012125   96.939590
H   34.231758   35.410942   30.021994
H   21.180532   47.288773   95.046608
H   81.881119   33.359093    8.062201
H   73.584900   65.929642    0.360552
H   90.646980   98.597160   17.415972
H   26.662739   24.072052   78.917992
H   30.465050   97.098206   86.915718
H   94.385536   54.581741   48.386677
H    8.982164   50.987389    2.061052
H   76.082703   63.214100    7.606436
H   63.860016   44.491409   21.382444
H   89.962364   15.899250   85.594475
H   35.752129   97.647560   40.642567
H    9.814369   54.756195   34.925545
H    4.623047    0.941576   32.990982
H   30.307037   41.374153   92.778137
H   52.645325   77.502266   15.994621
H   82.801048   79.456314   90.331146
H   27.589279   54.633602   80.416664
H   21.263809   16.293888   91.832123
H   93.429398   47.283295   14.044479
H   53.567055   75.021843   63.397415
H   95.126373   65.585876   28.086243
H   43.387932   95.039368   54.343170
H   35.608494   55.796917   63.281563
H   54.262482   42.296627   47.790195
H   29.193407   68.930367   46.434292
H   63.573898   67.746040   43.249718
H   93.404060   31.192734   74.976799
H   10.905545   38.163723   18.708988
H   17.925880   85.926445   76.158302
H   40.114811   92.155617   14.908788
H   79.929192   52.860611   70.221664
H   20.865791   76.742554   71.479637
H   82.094376   73.803276   12.355264
H   10.949712   16.276537   98.364014
H   64.379234   14.844219   92.508949
H   43.346786   28.905817   10.765493
H   36.198521   86.567146   27.647600
H   70.543205   38.876118   99.123093
H   15.024139   20.019379   16.025331
H   31.999578   77.951996   75.549583
H   25.464052   53.163429   16.371355
H   47.605564   36.804287   62.341286
H   46.995251    8.883839   92.955605
H   60.559437   55.901886   48.591270
H   56.368122   20.196543   17.695030
H   35.476181   32.853115   48.339149
H   76.430687   67.429420   15.106617
H   43.360752   36.973930   78.827499
H   22.253927   40.109150   15.849308
H   58.872635   35.982727   62.902130
H   20.884014   67.888802   38.162384
H   48.900833   69.779358   20.855665
H   96.581680    9.999155   10.584717
H   49.034435   20.007759   85.198433
H   46.603119   49.293015   51.480057
H   80.348183   40.597637   26.465876
H   99.984665   13.027990   95.064461
H   11.725046   66.493965   26.493412
H   13.377552    5.511263   86.309540
H   37.701488   42.809700   68.222824
H    8.529310   54.904297   61.712406
H   27.978439   68.362305   19.999445
H   53.295082   22.464668   88.683357
H   94.209297   31.683302   83.416702
H   13.890741   55.367859   81.414536
H   77.017021   76.619102    9.080632
H   79.209778   69.360420   96.658356
H   45.504616   31.423712   33.240856
H   75.251038   71.541840   33.070297
H   49.855408   99.099419   99.951653
H   77.154167   96.869431   59.975090
H   78.366600   32.073040   84.092026
H   82.632439   62.032471   33.767429
H   85.767487   17.663771   33.672062
H   45.206509   93.136497   47.536129
H   77.080109   46.439800   44.567581
H   81.334358   77.701111   13.297462
H   58.043987   54.214214   24.028603
H   22.148163   59.966690   85.254494
H   70.283035   47.483093   59.440464
H   15.955907   18.388399   43.302948
H   34.983032   98.136475   14.129859
H   95.822693   97.577095    9.140952
H   28.113180   28.126297   38.461487
H   94.751404   12.343960   70.683540
H    5.696292   59.987114    8.482969
H   53.262699   10.120117   10.370307
H   22.649780    3.565375   84.356522
H   56.605915   76.756157   79.443321
H   39.913792   99.846176    5.359096
H   80.163673   59.418331   89.312508
H   14.923298   33.856621   71.466118
H   92.977676    0.563695   42.969421
H   71.307938    5.985528   98.587975
H   15.713832   36.757385   17.474396
H   93.906761   47.238857   43.175621
H   88.910446   16.800457   65.568268
