100
TIME:    0.275, STEP:   275
H   98.725746   96.802498   98.894241
H   93.620567   19.654797   95.347473
H   84.489319   93.688759   20.110916
H   81.522766   21.320353   25.089228
H   92.707901   94.799988   58.248756
H   23.751980    0.914347    5.979275
H   38.557728   79.907295   11.958034
H   98.271835   12.393524   82.944603
H   46.867973   59.853271   82.777122
H   67.325279   20.335049   18.457918
H   74.675201   77.307800   13.260426
H   45.345432   37.474876   73.354347
H   25.769981   45.069580   97.796532
H   41.465549    4.229379   78.168053
H   83.847496   45.458328   37.553364
H   90.466476   87.683784   10.212299
H    1.956916    0.183294   98.393196
H    7.021274   81.327316   90.012497
H   49.546486   89.889267   77.850143
H   85.205391   99.765961   34.949074
H   47.957657   28.840256   49.778008
H   88.716530   44.462906   95.839424
H   82.072380   92.385658   24.482456
H   93.491028   39.979954   86.650940
H   19.747717   64.364922   38.589127
H   45.397739   19.415676   63.396812
H   38.365139   31.045204    5.423263
H    9.337585   69.275253   75.865402
H   17.150940   74.042198   44.172424
H   11.538583   84.033463    5.250665
H   26.919466   46.703056   87.650780
H   83.121094   44.912750   73.805962
H   89.728333   48.361656   22.571127
H   89.721336   48.520538   60.165871
H   73.936272   38.132370   41.473602
H   96.464928    6.088232   19.698095
H    6.175457   94.464211   30.134106
H   52.622734   53.920948   41.846928
H   38.357388   74.637550   15.768826
H   37.291615   86.438683   59.671509
H   16.448910   65.614586   48.818493
H    6.905746   24.199251   15.719956
H   13.610101   65.149033   21.336960
H   61.798767   17.380358    7.619976
H   32.801544   21.041710   79.639832
H   74.439247   68.373833   84.396706
H   38.983814   40.575909   29.973089
H   56.254101   98.214050   85.593399
H   73.066704    9.674335   33.503838
H   31.657415   34.935070   64.429703
H   43.523640   43.094368   56.316441
H   18.497343   38.220917   56.009796
H   14.583635   23.603271   86.898628
H   70.318314    2.715130   43.950947
H   18.866409   82.613022    2.739657
H   93.910324   12.242985   83.265152
H   13.686272   81.611839   82.142174
H    5.582181   50.916359    6.471390
H   11.966209   50.388290   90.371582
H   40.871025   48.925919   55.787926
H   77.047775   65.780380   92.954956
H   89.150848   25.385696   82.912155
H   92.885735   88.400291   14.692071
H   61.924278   43.290413   19.673979
H   43.237503   38.880367   21.171061
H   84.451759   28.602070   62.446011
H   65.504875   57.868176   80.339035
H   61.369652   33.265305   79.349190
H   70.609550   30.026573   42.985462
H   35.957397   61.976891    1.152481
H   13.299799   76.693459   58.849216
H   51.291485   42.398857   76.756447
H   89.060913    4.705120   54.698086
H   24.137993   31.976828   86.864540
H   75.429733   29.034990   22.244919
H   32.159595   25.197107   77.425034
H   91.923065    2.708963   95.898987
H   44.900330   32.738880   29.627239
H   74.735054   52.695774   20.754803
H   86.038956   93.977013   97.229767
H   16.263325   32.126659   96.425095
H   61.957577   46.023514   63.785439
H   35.196140   11.847425   56.092224
H   69.088287   35.693699   38.311958
H   38.939880   31.682472   21.094173
H   44.964481   19.154715   60.880192
H   85.521339   83.358177   36.656231
H   60.382126   83.276939   92.880211
H   61.390083   78.860786   25.950909
H   42.021980   97.971680   34.042690
H   35.276707   88.280746   39.269238
H   98.633842   16.188829   38.764114
H    2.928943   35.871101   40.189781
H   73.808113   29.912996   45.360119
H   51.837391   25.096638   22.405975
H   16.635498   84.872002   53.244865
H   40.773857   83.462166   21.373497
H    7.874900   18.579132   51.635384
H   95.611839   38.035709   22.016613
H   56.319927   71.640175   71.199570
