100
TIME:    6.699, STEP:  6699
H   64.296219    7.690441   93.012894
H   15.465946   67.874352    0.498177
H   94.917984   55.856682   44.706905
H   82.601013   56.651825   72.968872
H   35.168716    9.711729   84.068344
H   24.135303   93.950569   42.170727
H    1.876417   13.685493   14.323679
H   93.358101   68.149628   93.113518
H   88.953667   42.211914   78.409264
H   91.785957   12.572254   70.010689
H   77.130371   35.791203   94.468086
H    0.156747   59.476856   16.086952
H   16.589676   56.488041   59.375175
H   23.386429   84.427681   67.038017
H   61.972054   71.645134   28.747822
H   32.172348   25.810097   76.965332
H   85.413307   25.057880   83.224739
H   44.322353   68.865738   67.301796
H   49.603413   59.386551   16.291988
H   12.036041   63.548298   72.431694
H   66.748566   89.310455   75.419075
H    4.619995   52.977005   48.796539
H   96.300896   40.139687   40.684937
H   96.624001   16.967745    9.547028
H   89.990181   54.896645   86.013527
H   16.008501   28.620094   60.472328
H   84.416893   64.009781   32.886341
H   67.298660   69.126381   88.205948
H   56.834267   56.877575   40.506165
H   57.862339   25.039818   15.939911
H   79.704002   22.768177   79.375450
H   88.736298   67.422501   79.104088
H   42.225796   78.351814    1.295779
H   61.150597   59.799332   89.533676
H   14.236605   52.461739   32.623901
H   54.970135   10.122966   98.364845
H   22.320606   59.203735   36.320225
H   87.110558   36.358402   95.172050
H   62.307522   35.455498   95.129791
H   32.222836   85.045456   65.099045
H   77.422607   86.042168    0.171231
H   35.658829   67.873276   21.956268
H   68.938873    3.673243   85.349846
H   51.588917   25.085165   35.728516
H   75.566505   67.581680   29.362131
H   91.653313   90.690018   10.376650
H   94.070602   89.151932   89.768379
H   56.597179   64.367508   83.074097
H   60.845619   77.638405   77.249252
H   66.385986   32.696499   15.137525
H   43.041607   22.898458   24.044155
H   30.697151   42.122345   34.288704
H   47.830593   60.851807   13.800745
H   21.559448   97.900085   27.424057
H    7.410259   45.673553   57.328197
H    1.939356    5.487025   64.577026
H   20.939890   96.249382   93.118004
H   27.234041   44.249870   41.005356
H   18.613342   21.820423   97.201286
H   16.954597   42.696018   73.075096
H   82.278465   67.035416   92.089584
H   61.157326   65.588730   92.244766
H   28.855169   50.155556   74.099915
H    3.047496   78.255386   45.263241
H   98.216690   25.805866   19.417791
H   89.817413    9.246010   42.281006
H   50.095413   79.963196   90.489334
H   17.620201    0.659621   86.453537
H   90.778816   68.438919   40.083485
H   66.102501   85.082451   87.626953
H    9.308474   39.601562   81.790688
H   21.604227   29.198380   47.091690
H   70.203796   86.946655   89.985168
H   82.737343   25.440067    5.122217
H   85.156487   38.192142    9.227432
H   84.026268   36.915745   45.171356
H   75.194916   45.985737    9.549330
H   46.711529   12.688658   84.400444
H   82.754250   33.841648   92.421120
H   70.999832   44.093758   43.796288
H   41.961899   98.585892   80.372818
H   43.984222   87.914795   26.566452
H   41.602348   19.148962   67.923096
H   11.030580   85.406883   51.566311
H   26.143744   29.858772   98.359566
H   97.110825   55.121216    6.982083
H   14.565859   16.280922   42.977592
H   63.767357   69.014099   26.119637
H   94.705429   21.182604   73.401619
H   74.057724   33.661167   63.687553
H   98.173302   35.158730   74.932419
H   73.957062   99.308594   61.165268
H   14.872153   28.522495   37.048531
H   94.699623   19.593348   78.502304
H   40.771294   49.674637   70.022217
H   47.231537   31.194750   21.437103
H   30.866869   52.121506   51.923843
H   25.346704   17.926167   44.398651
H   89.588280   65.730110   83.925728
H   55.310642    6.728205   52.405186
