100
TIME:    7.896, STEP:  7896
H   83.348137   97.920494   91.917007
H   82.408646   32.736736   75.974075
H   15.495943   41.973404   30.652603
H   82.801926    7.334660    7.355358
H   24.444078    5.656497   51.611847
H    5.570447   92.653770   60.714233
H   39.140720   94.512726    7.930653
H   99.276260   71.705528   83.209404
H   59.529121   27.125095    3.061383
H   59.092018   29.759859   16.879578
H   65.788345   83.955399   79.166412
H   54.474609   19.476025   30.882637
H   40.248085   84.051376   40.424107
H   64.118462   80.738197   58.130230
H   76.510811   64.723190   71.181671
H   84.041779   21.116089   77.603790
H   89.157600    4.230752   92.192383
H   69.918320   10.619596   25.811962
H   68.244690    9.598813   79.353333
H   79.783859   38.132870   53.928993
H   95.716896   70.146240   42.931973
H   19.377550   54.566040   46.860931
H   80.319221   30.405313    6.435721
H   85.405853   31.287325   20.647877
H   47.177559   59.968956   94.853676
H   10.377071   93.329391   47.834053
H   81.198410   14.248963   56.639675
H   66.299187   24.998281   27.771566
H   82.861565   65.478867   83.924339
H    3.761472   95.413132   11.098141
H   26.812181   30.105564   84.672691
H   64.315544   34.353191   68.291801
H   26.540201   90.773811    9.130994
H   11.726283   50.101387   39.104645
H   84.445961   61.832024    5.450041
H   59.023396    3.877163   94.602303
H   37.128262   15.366552   30.639128
H   37.636162   14.449972   79.639809
H   11.778226    9.377367   79.131432
H   19.478848   72.986847   59.276398
H   95.616379   27.113791   28.370817
H   34.782158   72.567322   83.064659
H   79.240204   10.853607   71.808937
H   75.156631   45.176414   52.763844
H   71.735512   20.357426   31.792500
H   76.201317   13.518600   15.239645
H    3.424249   54.249702    1.257725
H   56.669552   76.696228   57.137280
H   95.840096   78.503059   29.498783
H   91.518311   50.915607   31.443687
H   42.959415    7.335436   36.662231
H   88.873825   31.048277   55.713654
H   72.658363   67.792419   44.284096
H   93.840637   78.375046   80.245377
H   12.103462   50.573082   67.507660
H    3.430218    4.227898   23.828323
H   96.824829   61.710701    6.962747
H   38.102951   31.207952   10.171622
H   13.014832   72.403191    5.309898
H   37.963974   34.701145   39.029564
H   57.786480   11.371529   98.762489
H   18.673470   54.447220   38.085350
H   10.119563   68.474152   92.018036
H   85.244194   84.775909   12.761310
H   45.729263   30.203581   30.889467
H   16.284424   49.739738   13.057405
H   54.057800   21.348141   48.281475
H   34.935143   69.117973   43.677063
H   50.438782   82.430138   65.010864
H   90.388405   45.239193   85.096313
H   71.298729   58.158508   67.434578
H   23.051285   89.421288   34.819981
H   92.156754   27.744165   59.298824
H   56.383923   49.681171   33.999451
H   42.828918   39.941639   99.981842
H   12.321626   13.631931   64.627388
H   83.907921   42.382072   30.777559
H    2.948465   34.422482   50.507175
H   40.154556   30.325680    5.775667
H   12.298249   78.886711   40.673683
H   65.392342   10.970101   51.916046
H   33.806213   95.677322   26.425179
H   17.313852   39.167149   81.918350
H   93.381721   87.836792   42.239269
H   67.860611   54.977505   82.324425
H   69.567551   99.086365   90.105301
H   94.510765   29.248955    0.055001
H   83.018425   73.229065   13.708725
H   19.548740   54.535393   63.611702
H   68.227173   84.413101    6.480968
H   47.159565   99.793678    0.210868
H   62.522938   89.334335   83.976830
H   91.602417   64.440056   29.614382
H   10.384165   92.214073   59.213924
H   20.074677   42.454445   97.528961
H   46.098831   83.927917   59.610268
H   35.854637   20.814457   83.082329
H   23.036211   77.152794   20.369135
H   32.565666   70.899040   83.664589
H   29.662279   76.008102   37.093662
