100
TIME:    5.533, STEP:  5533
H   43.147865   14.617616   94.080399
H   47.666725    4.687845   26.978466
H   74.866684   71.970261   58.397655
H   82.405304    4.689968   36.880264
H   45.612473   16.251772   15.683121
H   42.220615   95.213783   26.697580
H   62.983967   34.952457   23.140886
H   85.003403   67.275772    0.171468
H   17.616234   54.318024   51.805046
H   23.637712   95.829048   24.355688
H   85.588852   88.874969    6.783291
H   44.662766    1.031529   99.084602
H   90.994766   26.999401   75.235039
H   81.119987   88.021614   78.304176
H   47.800926   75.797714   84.806335
H   79.053604   27.792740   73.753632
H   79.176125   47.934948   77.079163
H   19.387220   25.601597    7.723814
H   31.446796   10.468143   54.860653
H   43.447372   88.314247   93.045021
H   35.940651    5.389056    7.069584
H   92.834442   51.429123   48.092209
H   11.869916   49.622688   74.044464
H    4.962143    3.019015   96.144073
H   31.691471   47.365799   77.402321
H   21.323786   63.091606   70.118607
H   84.962326   12.476076    9.748775
H   65.682320   14.701424   49.665710
H   31.481026   51.088871   95.625000
H   13.153412   53.898033   23.246010
H   33.813232   18.210621   71.625587
H   15.114075   99.643356   87.046547
H   60.095394   63.661674   96.253288
H   11.883616   66.656303   38.653938
H   43.236511   40.667801   61.647835
H   53.611683   18.796955    2.030984
H   10.486047    1.904103   44.444012
H   35.303112   57.699604   12.890659
H   11.521508   60.862114    8.123728
H   42.046589   94.202065   73.360130
H   57.110168   46.032524   72.700783
H   34.345970   60.183357   62.739956
H   58.899807   96.679703    1.129023
H   26.043171    5.514101   21.723680
H   76.708366   13.589131   29.584589
H    6.702765   68.450333    5.639597
H   84.961227   25.741703   78.577370
H   56.534908   52.358078   10.928565
H   26.765526   74.206177   23.759876
H   41.921421   14.947149   96.679733
H   43.122486   35.468414   11.753737
H   74.026085   50.318806   10.829971
H   23.642712   54.090942   81.521538
H   48.558426   16.925522   75.972679
H    0.248784   43.490826   47.409298
H    0.487056    6.713544    4.270432
H   47.019264   29.894569   82.221733
H   14.057158   54.364220   71.037827
H   26.652830   72.551857   86.711891
H   93.898468   53.073742    6.238899
H    8.726187   21.262260   82.999535
H    2.540692   76.441696   45.004349
H   49.696369   29.721476   54.056030
H   22.980366   71.903732   76.920029
H   51.938034   18.932232   10.833091
H   61.445030   67.211266   73.337471
H   43.645874   39.652470   34.196243
H   98.163445   33.976109   30.711996
H   32.666172   52.220238   13.211709
H   42.483162   26.435574   90.082214
H   46.335426   18.935410   95.775002
H   17.746265   67.895432   61.723381
H   46.229721   44.620613   19.881149
H    8.408009   99.235985   74.401604
H   28.939871   36.528614   20.837101
H   56.464417   62.187584   23.629122
H   69.316307   46.982822   88.902122
H   91.930725   88.931160   20.006029
H   26.840694   37.266560   79.415352
H   28.179588    7.610036   44.248291
H   19.143984   86.523087   10.683736
H   56.477753   80.353165   24.105520
H   67.850655   99.650696   56.879406
H   30.811815   85.629684   58.062084
H   82.917671    2.791593   11.390038
H   23.948391   12.289630   26.011673
H   36.691292    1.058617   87.378250
H   45.014854   62.318439   38.209129
H   70.508652   86.103951   82.937996
H   77.147583   81.633347   22.009317
H   50.455833   72.196548   50.308636
H   87.684868   11.613992   38.952271
H   40.129349   93.536720   46.879963
H   82.010719   48.853832   99.880913
H   60.929344   54.117954   43.227848
H   50.924713   77.239716   81.662170
H   23.418741   85.208336   18.981476
H   27.174574   63.347870   67.492241
H   45.133636   60.700886   81.590446
H   82.886765   36.648739   64.730225
