100
TIME:    8.015, STEP:  8015
H   75.300529   87.007561   91.808060
H   79.122055   39.185535   83.476944
H   17.541437   50.534882   29.255802
H   82.821899    2.431557    0.832425
H   23.377752   15.194844   48.385178
H    3.724917   92.524849   72.499001
H   32.904369    2.547888   17.236607
H   89.923096   82.001091   72.283760
H   56.603874   15.683318   95.571014
H   55.841743   31.468523   21.539364
H   54.719254   88.743652   67.703293
H   49.932396   25.440914   22.412403
H   32.659874   76.848114   28.598604
H   58.226204   80.371407   67.186195
H   77.956184   54.093521   65.458282
H   79.257156   10.707830   67.725861
H   79.588356   12.101492    3.025426
H   72.462250    4.829188   21.686928
H   70.098618   14.591344   85.623276
H   76.577164   35.606190   62.031075
H   88.655266   58.299549   39.702579
H   30.786196   54.724014   36.726974
H   78.730400   29.437948    3.030877
H   74.349472   32.710907   11.809836
H   42.921333   50.531357   95.732521
H    9.815990   89.821274   36.635132
H   70.937347    9.302054   59.001118
H   56.258537   30.552801   31.705034
H   85.449074   76.275589   78.299004
H    8.324337   92.467911   20.557983
H   31.495573   40.776169   75.257790
H   71.829308   31.065693   57.275368
H   34.922527   82.067070   19.851454
H   16.754482   39.195717   34.091232
H   81.484398   52.822044   12.690340
H   69.367981   13.198098   94.228249
H   48.541447   11.008188   40.015896
H   32.718079   12.272152   88.037865
H    6.755025    6.784864   67.599312
H    8.270393   61.846764   68.639099
H   87.483429   31.196608   31.174406
H   24.753517   73.033981   89.140312
H   80.264313   11.567442   80.404915
H   67.557526   47.173790   64.398590
H   61.412941   15.662668   41.975494
H   74.665154   15.787890   15.723101
H    4.354504   60.721199    2.400598
H   56.676815   77.921890   64.500328
H   99.319160   68.646919   24.751839
H   94.016846   52.726864   23.123257
H   42.951244   95.846611   37.916946
H   94.657135   20.005968   47.902100
H   75.126030   68.482422   37.373177
H   91.084259   76.433960   85.496658
H    2.628250   61.002106   68.519058
H    3.578432    4.102721   19.777283
H    4.369042   58.277031   18.280785
H   29.242010   19.969538    7.106332
H   22.400227   77.431129   96.174362
H   30.111565   43.848217   35.644920
H   65.292984    5.837664   89.483772
H   14.449928   53.339584   32.700607
H   18.198494   60.353912   83.857849
H   93.415276   85.424149    9.530328
H   50.453056   20.699251   41.971313
H    8.974483   43.823875   20.093708
H   44.510345   25.462280   54.026653
H   26.715034   75.923576   49.365952
H   56.370079   73.879555   57.547157
H   92.805229   51.215885   84.843918
H   67.520058   50.061874   66.007362
H   13.251952   85.470116   43.542156
H   84.397858   21.857809   56.247379
H   53.764637   42.150158   26.929068
H   48.561386   40.116863    9.004332
H   15.134974   21.258728   56.620567
H   94.715538   32.081970   32.888161
H    8.538722   26.641796   57.079449
H   45.860695   29.976139    7.103695
H    6.462538   72.404320   30.421700
H   67.722008   12.201211   59.028519
H   42.735390   96.449036   16.469624
H   24.840780   41.157261   93.250732
H    1.569056   98.019775   31.370823
H   62.066406   47.533649   70.788673
H   66.829330    3.457347   98.368988
H    2.458521   20.596687    5.729439
H   84.932274   63.707001   12.474892
H   22.018677   47.909554   62.638435
H   57.705906   79.517715   10.734737
H   52.029530    6.219095    2.724027
H   71.327736   98.284393   86.244759
H   99.230576   68.009911   38.816833
H   21.884962   99.433678   67.237923
H   18.016926   31.794815    0.263528
H   55.927734   79.228638   53.463799
H   26.409136   27.643211   76.238594
H   22.806513   83.041420   17.980001
H   26.896751   71.412910   73.697685
H   37.053478   72.953934   25.629635
