100
TIME:    1.440, STEP:  1440
H   19.941027   89.966049   97.827652
H   61.214027   82.820030   68.835014
H    4.507062   77.503609    6.431780
H   81.718307   73.321861   61.233494
H   82.273102   88.179878   26.659935
H    5.686480   99.648033   21.353472
H   77.499214   58.574528    3.062676
H    6.705139   13.180811   75.978477
H   18.230049   47.843307    9.443658
H   35.487587   37.059624   64.081261
H   66.309738   24.183796    1.041762
H    0.877577   95.870644   90.428658
H   51.663193   74.585320   82.004417
H   83.781456    0.637522   66.825798
H   98.015358   41.399487   81.553391
H   43.625427   85.783379   13.508344
H    8.293598   77.226486    4.464375
H   31.916489   24.673645   49.624313
H   67.689201   38.763702   39.226795
H   53.720490   75.233261   14.374491
H   78.824997   12.860367   18.160576
H    0.424316   46.000572   96.641151
H   66.517952   82.910789   91.149338
H   85.249901   53.952274    0.126537
H   78.081535   71.968941   47.186874
H   40.056202   84.701218   54.200829
H   37.905891   82.618607   28.541464
H   11.039146   23.654034   14.370757
H   42.482437   79.740173   89.103294
H   56.209087   55.199997   97.864922
H   72.747261   51.176758   95.463379
H   56.679630   12.728190   65.956062
H   71.790237   63.124962   27.523527
H   38.945152   41.755257   11.086655
H   44.978371   50.067238   12.415207
H   97.756744   97.602859   15.689324
H   17.914089   51.800636   21.931524
H    4.474581   32.598049   24.058529
H   85.983505   49.768242    4.109123
H   27.561861   77.375679   51.330936
H   36.832886    5.593144   76.270309
H    2.202192   76.486671   70.453751
H   23.644400   72.135193    5.486553
H   87.405952   36.904503   21.529928
H   31.746532   75.074478   79.334671
H   59.509518   90.382576   89.018532
H   51.285145    3.419533   39.927925
H   56.316319   10.209551   57.676968
H    7.124786   13.189056   87.032028
H   56.091198   52.667118   82.949181
H   43.434757   30.621214   68.599991
H   75.114403   30.117468   79.528915
H   38.750641   30.358337   19.236267
H   43.344570   83.711098   95.360550
H   26.121384   84.743210   12.625536
H   95.367996   11.018576   43.605804
H   87.541595   47.996498   92.943336
H   18.832027   40.897728   76.464188
H    3.847502   99.611389    0.933342
H   63.992069   38.471401   22.652550
H   50.537243   11.606059    2.122814
H   47.802734   14.541739   30.199165
H   71.908066    8.955872   34.768654
H   41.921677   49.627731   88.044075
H   89.478142   45.834011   29.665255
H   12.883711   70.686409   31.329390
H   72.034592   98.148346   36.586254
H   80.895042   99.891586   35.042927
H   28.671463   46.317108   69.919319
H   59.555687   20.570524   98.700897
H   76.305550   97.422707   44.876896
H   55.231785    3.734287   62.052917
H   13.100868   47.077084   24.824696
H   98.497246   58.254738   17.625114
H   31.600456   30.692648   10.559448
H   59.704266   99.862572   99.036522
H   97.697289    1.737119   16.514238
H   99.634140   56.563713   93.965103
H   30.575716   49.284031   33.745567
H   28.905319   30.528135   96.863991
H   39.061672   44.179119   66.054039
H   49.368191   53.631851   66.365555
H    8.911113   31.290934   67.052765
H   49.229816   35.384258   31.901894
H   82.213104   58.812599    8.160593
H   18.148327   61.950603   41.781319
H   63.329063   98.653183   92.207764
H   79.136322   90.004852   80.774422
H   85.566109   13.995542   16.418266
H   39.023079   50.031082   75.693001
H   82.953255   51.186642   63.871899
H   84.832375    3.808156   60.958061
H   77.677361   70.776962   30.317682
H   86.409187    0.578737   23.910858
H   31.696560   20.742897   49.175774
H   12.859726   38.866447   93.070892
H   48.301712   50.319042   54.373474
H   12.152335   28.498413   32.996735
H   40.113640   43.057568   24.429211
H   28.670273   41.715725   58.993355
