100
TIME:    5.769, STEP:  5769
H   27.188177   92.975548   93.864334
H   41.148781   17.476721   41.859600
H   78.925095   88.949326   55.626629
H   82.444916   94.966644   23.943966
H   43.498642   35.168213    9.284462
H   38.560123   94.958107   50.070148
H   50.616077   50.889011   41.596394
H   66.454269   87.693863   78.503792
H   11.814903   31.627655   36.948814
H   17.189650   99.217659   33.597416
H   63.636703   98.371002   84.049995
H   35.654678   12.860613   82.285591
H   75.935074   12.727444   51.784843
H   69.434502   87.294197   96.262733
H   50.670982   54.717026   73.462952
H   69.564774    7.151189   54.163788
H   60.198463   63.543804   98.563171
H   24.434126   14.118671   99.543007
H   35.121830   20.369295   67.293839
H   37.089676   83.301552    9.112909
H   21.936073   81.895264    0.664183
H   15.459991   51.742416   27.994614
H    8.718526   47.703316   67.292450
H   83.034981    5.842257   78.617645
H   23.251453   28.649216   79.145241
H   20.247965   56.114525   47.926491
H   64.612656    2.665507   14.431522
H   45.770031   25.717110   57.467438
H   36.612556   72.500854   84.468872
H   22.202152   48.057091   42.007187
H   43.102203   39.372921   52.954018
H   30.015293   93.121811   65.198830
H   76.718376   46.394524   17.514036
H   21.855705   45.028252   28.711672
H   37.370361   22.827616   76.019424
H   74.126999   37.281914    1.288771
H   33.121452   93.261353   63.039959
H   25.549603   53.380116   29.543911
H    1.559468   55.719780   85.253563
H   19.818464   72.109474   91.927269
H   40.980957   54.129539   78.260841
H   14.034223   64.226273   74.476036
H   60.932613   98.094925   18.175304
H   10.974325    9.475424   44.797966
H   56.236942    4.278104   49.779522
H    3.657369   72.951675    6.598383
H   86.804977   38.576370   80.842445
H   56.547512   54.788803   25.530920
H   33.663383   54.660408   14.345689
H   46.871098   18.539221   80.172409
H   43.105465   12.683653   14.241630
H   85.495506   28.419022   95.336983
H   28.538372   55.459351   67.815849
H   43.093796   13.074515   86.386986
H   81.458366   64.173584   49.416897
H    0.781021    6.465295   96.236420
H   61.979927   23.084938    4.667307
H   96.484283   32.077171   64.959213
H   45.264984   82.523232   68.594887
H   78.323822   71.213440   99.526512
H   23.613708   10.287321   64.598045
H   94.164833   74.245041   34.325363
H   65.719154   13.616638   37.872803
H   39.186501   73.189316   70.513718
H   61.306229    0.083219   32.811314
H   46.947105   55.478966   87.291634
H   24.711079   47.810703   45.590042
H   81.861382   47.472935   41.994160
H   44.429081   35.262779   98.410065
H   47.263588   38.306091   89.585266
H   38.841591    2.877851   92.944557
H   98.287186   60.063095   79.001572
H   30.842262   32.947731   13.829544
H    3.213442   84.298729   60.379021
H   40.317707   36.865314   38.727798
H   62.044281   77.312309    7.749516
H   90.742699   26.527163   93.075768
H    3.018443   73.500557   33.040115
H   38.157070   36.573353   82.047737
H   16.607861   94.754463   23.916546
H   23.762362   88.964615   24.788412
H   74.190674   81.883621    4.363756
H   82.777107    3.597158   79.354279
H   47.047325    5.824644   36.507854
H   71.426643   88.030510   88.512619
H   18.516171   20.958317   42.400162
H   52.453194   83.899483   98.631607
H   48.810387   43.432606   35.762199
H   75.406113   72.963631   81.007820
H   56.282291   71.924850   30.445734
H   60.113914   84.940750   55.292522
H    5.146478   29.362898   43.448212
H   55.257462    0.616579   65.130203
H    4.819686   63.171703   15.793725
H   56.849327   32.977848   48.651066
H   70.417328   67.920135   69.472534
H    4.686581   98.751976    5.408675
H   27.141825   71.907318   63.066483
H   33.891083   61.718189   61.823952
H   97.546738   30.593323   41.994900
