100
TIME:    6.988, STEP:  6988
H   44.752029   81.187843   92.748306
H    7.485311   83.533516   18.720619
H   99.887817   76.648842   41.313572
H   82.649521   44.745392   57.127949
H   32.580170   32.876354   76.232147
H   19.652752   93.637474   70.791946
H   86.728958   33.200954   36.923855
H   70.643272   93.153137   66.579811
H   81.849495   14.425796   60.218418
H   83.892433   16.722322   81.326210
H   50.248291   47.419819   66.629082
H   89.127823   73.963013   95.516060
H   98.148048   39.009663   30.658543
H    9.077496   83.536903   89.029640
H   65.482246   45.830223   14.850368
H   20.551464    0.532846   52.976074
H   62.173714   44.172115    9.533563
H   50.502674   54.802917   57.284233
H   54.103603   71.509903   31.516788
H    4.250557   57.412075   92.108177
H   49.598892   60.540718   67.574059
H   32.326706   53.360657   24.185501
H   92.442329   37.789268   32.416580
H   69.772789   20.425020   88.083939
H   79.653633   31.976761   88.147865
H   14.658260   20.094597   33.280739
H   59.496769   51.995308   38.621273
H   42.914429   82.615929   97.757553
H   63.118217   83.098183   26.845053
H   68.944138   17.887138   38.914146
H   91.076851   48.682701   56.510689
H    6.983896   59.437634   52.349892
H   62.583591   57.206871   27.331182
H   73.361305   33.314133   77.358246
H    7.043723   30.580360   50.207939
H   80.092705   32.759338   97.456429
H   50.038727   48.620239   59.092381
H   75.164436   31.068859   15.565757
H   50.107838   29.158815   67.123215
H    5.002312   57.990902   87.835922
H   57.671158   95.959785    6.979457
H   11.303452   69.006592   36.709972
H   71.425995    5.406868    6.225300
H   33.136150   29.935934   63.984245
H   50.498039   56.179478   54.092350
H   87.922630   96.202255   11.550756
H   96.328415    4.868705   92.542137
H   56.614132   67.344116    0.955774
H   69.293953   53.703014   65.722061
H   72.453857   37.095264   94.930733
H   43.021763   94.996872   27.090218
H   44.744640   15.304207   15.317807
H   53.825703   62.527527   97.016151
H   14.867592   93.186020   40.176773
H   84.399704   71.000572   59.786655
H    2.299305    5.183025   54.738785
H   39.260365   87.910469   20.604530
H    5.715104   16.957071   33.561630
H   41.405342   34.033337   75.015633
H   97.883751   64.910248   64.855247
H    0.508553   53.596085   69.555557
H   50.900154   62.898758   79.169739
H   48.476353   30.434887   54.282318
H   22.892723   79.829681   37.416019
H    9.687675    2.723859   46.331257
H   72.063599   94.879265   59.368942
H   26.908495   89.955780    4.442212
H   97.656639   17.188520    0.269409
H    5.181848   47.673218   21.957043
H   71.958702   99.617119   87.018402
H    0.130957   19.938309   78.324593
H   97.808235   19.588604   68.266701
H   51.360764   72.654083   82.576721
H   76.374016    7.149374   87.950745
H   99.091270   38.604633   31.136448
H   90.857033   55.439068   25.726030
H    1.442029   20.971203   14.674608
H   60.289272   93.791878    0.359511
H   96.614220   32.992764   95.644676
H   56.826767   28.350552   18.898613
H   47.617455    1.576092   97.645966
H   65.669533   89.788956    2.388731
H   59.883133   23.982092   95.444595
H   30.913219   10.137217   25.171513
H   12.071852   11.780709   70.344170
H   90.460861   65.737427   27.051285
H   33.867512   95.267937   56.758186
H   68.415276   45.887432   23.123184
H    0.702839    5.092009   71.037971
H   48.506062   21.770168   74.019623
H   10.000507   50.762772   81.035568
H   95.340134   21.043694   66.671959
H   33.397648   37.194347   59.397346
H   22.630100   37.126671   97.989166
H   35.775002   23.786964   76.663361
H   71.101730   19.783316    6.509613
H    7.928049   68.706726   35.303345
H   24.788866   32.225994   38.597572
H   75.820915   66.978081   59.719997
H   73.261833   99.312180   24.563976
