100
TIME:    9.708, STEP:  9708
H   60.809479   31.751545   90.258072
H   32.364090   30.926395   90.225334
H   46.642460   72.336418    9.382591
H   83.106064   32.681877    8.033343
H    8.207247   50.895996    2.482908
H   77.477051   90.690697   40.161606
H   44.173351   16.868288   49.631420
H   56.856644   28.467365   16.836906
H   14.986702   52.907364   89.003441
H    9.597311   55.777500   87.828194
H   97.240448   56.863495    4.623541
H   85.313759   10.302322    1.903487
H   24.702835   74.375664   60.352623
H   74.399551   75.153114   96.022408
H   98.519356    2.866408   84.042259
H   11.184883   62.631760   27.192223
H   43.447456   24.079834   57.145889
H    8.666976   22.447441   62.997368
H   96.474243   85.615601   74.820236
H   30.965214   99.653534   77.298393
H   88.189743   89.755806   93.751007
H   93.095764   56.971497   92.552429
H   56.126411   15.675272   54.593552
H   17.044334   52.964081   86.073929
H   82.371078   16.267120    8.231697
H    1.830736   39.911667   77.316322
H   24.946922   38.926868   92.586105
H   13.409130    9.576329   87.667015
H   22.262417   29.877413   98.270401
H   73.241020   50.566574   55.146584
H   98.125465   92.591141   41.313034
H   78.726425   84.289642    0.545918
H   54.176834   58.198792   72.370262
H   88.287796   84.042473   62.768715
H   39.350563   24.638130   15.694924
H   16.537195   45.806515   88.906624
H   10.922860   49.007576   73.417801
H   62.740154   81.294289    7.508575
H   35.294361   69.896324    3.535467
H   48.807980    3.351768    1.839459
H   71.778519   89.288025   71.060753
H   82.076286   79.675125   75.566154
H   94.834198   21.724911    2.692408
H   59.463238   75.597694   29.930004
H   14.549292   48.862217   86.848083
H   52.816940   48.076061   22.601171
H   17.590939   52.795666   18.658651
H   56.780148   95.359253   69.253204
H   48.802948   28.433796   57.219650
H   29.553938   78.502678    4.749024
H   45.337574   32.587128   51.921951
H   76.937698   62.909714   36.766487
H   10.236006   78.299011   39.047012
H   51.873566   48.811241   60.203316
H   67.829445    9.367152   82.908112
H    5.687061    2.321850   62.143555
H   11.697784    9.426147   79.298988
H    3.178578   60.086342   63.499413
H   55.929729   48.969193   66.203117
H   18.391575   73.977966   87.491982
H   72.092468   27.104650   57.490414
H   54.362022   37.581375   56.100586
H   33.146709   44.842628   67.771133
H    9.670490   94.646576   63.570786
H   17.649361   85.481056   99.631966
H    4.972215   59.660149   20.197580
H    8.677189   83.992371   35.765087
H    9.767848   72.748177   30.301147
H   40.747993   52.231369   51.364918
H   27.189407   36.251705   81.253113
H   13.751299   34.864658   45.702522
H   73.836250   29.257225   67.637054
H   74.012543   38.112629   12.834805
H   16.500347   35.001095   26.336828
H   30.114202   42.609760   37.368595
H   55.163338   29.764122   42.703850
H   48.476509   85.548141   62.919174
H   88.071526   15.946831   50.587570
H   27.047552   25.003262   25.999109
H   23.435871   80.178230   84.568428
H    0.865835   29.716074   60.217369
H   69.775383    7.435760   74.831856
H   31.925428   69.470375   54.484623
H   18.044395   42.894119   76.741173
H   79.632889   41.625885    6.672566
H   27.860989   65.647301   15.936389
H   15.530291   97.501152   86.458015
H   12.159334   28.233622   94.924957
H   57.153568   53.646141   48.791878
H    8.020856    9.861557   71.252380
H   21.314688   97.634720   38.477318
H   96.592590   25.613619   18.503237
H    7.755067   18.802572   69.739128
H   83.000954    1.955650   85.238808
H   88.744431   80.146339   39.164253
H   95.762558   12.374220   66.018066
H   92.027245   24.800205   78.871933
H   19.538622   66.810730   83.987022
H   46.246208   78.723686   31.890896
H   42.212151   29.512497   62.538456
