100
TIME:    5.084, STEP:  5084
H   73.512367   55.792610   94.491470
H   60.067390   80.358673   98.667603
H   67.145386   39.666870   63.669651
H   82.329941   23.189911   61.493187
H   49.634125   80.262527   27.856007
H   49.184856   95.700218   82.231987
H   86.517677    4.632761   88.028427
H   20.293922   28.432629   41.398212
H   28.653511   97.487411   80.067711
H   35.907036   89.382072    6.772122
H   27.353729   70.808365   50.032467
H   61.801033   78.525383   31.043852
H   19.646439   54.151009   19.850098
H    3.351970   89.405556   44.135269
H   42.340523   15.904189    6.388269
H   97.106506   67.063797   11.024479
H   15.282217   18.238438   36.204926
H    9.785823   47.447140   23.288019
H   24.453438   91.632477   31.206896
H   55.543159   97.851112   62.474983
H   62.584953   50.089661   19.256149
H   49.788376   50.833069   86.328735
H   17.865303   53.274376   86.890457
H   46.681393   97.647675   29.490677
H   47.750641   82.973068   74.086342
H   23.370581   76.362610   12.341963
H   23.679499   31.140610    0.839308
H    3.569190   93.743652   34.822594
H   21.718071   10.352449   16.848797
H   95.937057   65.010674   87.552315
H   16.142109   77.947250    7.149040
H   86.764168   12.048097   28.612679
H   28.467037   96.513161   55.803825
H   92.912109    7.804490   57.570091
H   54.397110   74.608627   34.308136
H   14.581182   83.629143    3.443096
H   67.419922   18.348660    9.064603
H   53.859577   65.916817   81.205025
H   30.475140   70.645622   51.634735
H   84.337242   36.236130   38.032841
H   87.796677   30.627607   62.122540
H   74.699516   40.030563   41.648548
H   55.032307   93.987183   68.695534
H   54.712002   97.977539   77.822311
H   15.656725   31.303017   91.161766
H   12.496639   59.886341    3.814840
H   81.453415    1.322424   74.267967
H   56.510929   47.733521   83.147057
H   13.642059   11.393490   41.671539
H   32.504452    8.113081   28.082634
H   43.156742   78.815933    7.020417
H   52.205025   91.982056   40.307243
H   14.328664   51.487488    7.597715
H   58.955116   24.252876   56.159019
H   35.999756    4.141933   43.589756
H   99.927444    7.185848   19.555450
H   18.555969   42.850182   39.518227
H   47.490128   96.766273   82.602646
H   91.241386   53.580719   21.181194
H   23.527630   18.560841   19.009529
H   80.403076   42.142162   18.007774
H   18.474989   80.620926   65.321350
H   19.212690   60.360153   84.845306
H   92.148598   69.457855   89.108307
H   34.114647   54.794193   69.019798
H   89.027946   89.532463   46.789085
H   79.669464   24.130215   12.517517
H   29.179253    8.296245    9.247199
H   10.286961   84.482521   41.373466
H   33.388199    3.851934   91.027679
H   60.592766   49.484894    1.160337
H   54.767365   82.796783   28.848080
H   75.504883   66.829201   31.394585
H   18.290859   27.652969    1.080104
H    7.292134   35.888027   86.799408
H   45.848488   33.409134   53.839947
H   28.548857   85.899117   80.961586
H   70.835892   18.289692   95.209236
H    5.310439   38.585415   74.407127
H   50.196259   32.067539   82.930145
H   10.357874   81.877975   83.847969
H   22.783920   77.429947   61.656639
H   39.449486   92.141785   14.117703
H   99.921478   47.208176   99.072845
H    4.780087   30.877678   54.915596
H   34.283421   95.797523   94.831467
H    6.703603   33.704712   65.968262
H   37.789932   98.257721   42.872078
H   61.191025   11.103552   86.610237
H   16.844469    0.104197    5.959158
H   32.080925   47.952435   40.826580
H   54.463413   77.844833   30.398550
H   11.347613   80.067268   12.158100
H   38.615936   21.614447   69.605476
H   68.691750   94.335320   32.909946
H   13.839187   94.970612    4.853645
H   59.058250   59.440990   44.803635
H   25.526861   59.524902   74.679146
H   66.523071   58.765423   19.198395
H   54.996647   48.169025    7.982303
