100
TIME:    8.057, STEP:  8057
H   72.460197   83.155937   91.769608
H   77.962082   41.461582   86.125015
H   18.263376   53.556580   28.762814
H   82.828949    0.701050   98.530342
H   23.001402   18.561329   47.246353
H    3.073554   92.479347   76.658241
H   30.703209    5.384044   20.521061
H   86.621979   85.634819   68.427650
H   55.571434   11.645122   92.927429
H   54.694588   32.071583   23.183994
H   50.812515   90.433624   63.657516
H   48.329262   27.546169   19.422909
H   29.981682   74.305786   24.424784
H   56.146584   80.241951   70.382210
H   78.466316   50.341873   63.438354
H   77.568466    7.034288   64.239532
H   76.210976   14.879419    6.848851
H   73.360107    2.785496   20.231033
H   70.752945   16.353413   87.836197
H   75.445389   34.714420   64.890633
H   86.162926   54.118198   38.562794
H   34.812778   54.779770   33.150284
H   78.169640   29.096525    1.829167
H   70.447220   33.213348    8.690486
H   41.419136   47.200439   96.042702
H    9.617962   88.583115   32.682571
H   67.315796    7.556097   59.834568
H   52.714851   32.513218   33.093445
H   86.362312   80.086197   76.313591
H    9.934761   91.428421   23.896751
H   33.148647   44.542236   71.934883
H   74.481224   29.905399   53.387215
H   37.881100   78.994102   23.635145
H   18.529209   35.346657   32.321793
H   80.439140   49.642052   15.245726
H   73.019012   16.487841   94.096230
H   52.569630    9.469942   43.325344
H   30.982189   11.503510   91.001884
H    4.982101    5.869864   63.529152
H    4.314468   57.914711   71.943420
H   84.612976   32.637604   32.163906
H   21.213997   73.198685   91.284660
H   80.625763   11.819384   83.438789
H   64.875763   47.878883   68.505280
H   57.769920   14.005621   45.569489
H   74.122978   16.588818   15.893732
H    4.682829   63.005257    2.803965
H   56.679379   78.354477   67.099052
H    0.546941   65.168282   23.076447
H   94.898682   53.366131   20.186634
H   42.948360   91.791832   38.359787
H   96.698303   16.108683   45.145081
H   75.996971   68.725952   34.934029
H   90.111420   75.748871   87.350052
H   99.284096   64.682877   68.876022
H    3.630743    4.058541   18.347504
H    7.031613   57.065147   22.275322
H   26.114729   16.003038    6.024465
H   25.712719   79.205696   92.950150
H   27.340126   47.076595   34.450340
H   67.942337    3.884535   86.208931
H   12.959267   52.948654   30.800213
H   21.049881   57.487946   80.977783
H   96.299187   85.652939    8.389981
H   52.120277   17.344782   45.882538
H    6.394505   41.735924   22.577076
H   41.140656   26.914330   56.054363
H   23.813820   78.325554   51.373795
H   58.463478   70.861702   54.912865
H   93.658226   53.325306   84.754837
H   66.186409   47.204079   65.503639
H    9.793422   84.075584   46.620571
H   81.659424   19.780272   55.170399
H   52.840183   39.492153   24.433683
H   50.584610   40.178707   12.188730
H   16.127932   23.950539   53.794655
H   98.529991   28.446640   33.633171
H   10.511718   23.895672   59.399075
H   47.874626   29.852772    7.572411
H    4.402905   70.116417   26.803352
H   68.544243   12.635720   61.538803
H   45.886864   96.721405   12.955898
H   27.497343   41.859653   97.250397
H    4.458573    1.613808   27.534901
H   60.021393   44.906406   66.717232
H   65.862900    5.000079    1.285611
H    5.263634   17.542946    7.732195
H   85.607750   60.345963   12.039421
H   22.890419   45.571022   62.294930
H   53.992390   77.789932   12.236053
H   53.748341    8.486890    3.611030
H   74.435310    1.443188   87.045204
H    1.922834   69.269859   42.064758
H   25.944067    1.981758   70.069923
H   17.290661   28.032593    1.228593
H   59.396759   77.570068   51.294456
H   23.075495   30.053360   73.823158
H   22.725443   85.119759   17.136778
H   24.895958   71.594276   70.179955
H   39.662136   71.875992   21.583508
