100
TIME:    1.908, STEP:  1908
H   88.292389   47.047958   97.399185
H   48.195778    8.193121   98.356377
H   12.551641   11.173388    0.937525
H   81.796860   54.040855   35.579044
H   78.081268   25.692127   13.971258
H   98.429451   99.141014   67.702171
H   52.971096   90.174568   39.660942
H   69.921257   53.667416   33.007820
H    6.725716    2.846897   79.985710
H   22.699152   43.779411   82.405357
H   22.777512   43.014912   55.960598
H   83.017487   19.328600   57.115364
H   21.894855   46.270805   35.489395
H   60.608543   99.194862    2.438765
H    3.707829   99.597321   59.058098
H   24.808594   44.848846   74.660904
H   70.667114    8.176094   47.072861
H   41.917618    1.914463   33.399704
H   74.980278   58.398193   63.881489
H   41.112854   65.292831   46.238136
H   51.053207   66.270813    5.458321
H   45.299381   46.618279   56.793091
H   60.269478   79.104576   77.759750
H   41.767662   59.565189   65.370728
H   61.342766   34.852242   50.639603
H   37.910297   70.754623   10.335773
H   97.549507   63.166058   37.828480
H   71.549698   45.498699   29.840193
H   52.658524   22.200617   66.980125
H   74.154701   43.617111   35.068661
H   91.157051   93.145081   58.430103
H   86.229553   99.798546   22.630928
H    4.753998   28.883488   69.684662
H   58.718895   98.866043   91.370682
H   33.345497   14.690129   40.911819
H   38.448193   34.367168   14.080659
H   62.800117   34.661964   58.808231
H   85.129936   24.032284   57.082607
H   64.945786   39.777824   59.255142
H   83.480904   33.562466   88.151749
H    4.851410   21.651655   87.296188
H   60.141022   97.488686   92.441238
H   27.675558   74.941650   39.290169
H   57.520393   44.749016   67.287277
H   91.150719   56.608990   19.382902
H   53.471706   99.308968   90.918068
H   56.226795   28.666574   43.926949
H   56.341312   15.028017   86.634178
H   20.803617   74.428246   68.365158
H   65.905968   59.790379   50.215824
H   43.399052   85.438194   73.534500
H   97.858849   86.691040   48.806080
H   48.458984   33.071960   92.055901
H   32.507931   76.077248   16.011301
H   88.864044   25.770105   16.596754
H   95.953568   10.526731   27.673981
H   17.211329   34.492653   37.454201
H   83.983490   96.700211   64.409988
H   40.756348   19.386202   65.006348
H   33.110325   74.443726    9.341962
H   80.058609   89.841377   65.631889
H   31.192593   10.184767    9.022489
H    3.650599   77.041847    2.661847
H   74.059143   52.173538   75.340034
H    8.053092    8.454799   73.250183
H   84.133888   47.420662   59.001202
H   34.486618   14.327949   59.180737
H   48.567223   26.658154   57.416035
H   51.997910   12.689606   40.566490
H   69.037415   44.110336   97.715424
H   61.444893   65.580482   39.263981
H   16.644068   88.202148   96.316185
H   82.586212   23.929165   12.824055
H   88.199760   28.637175   89.810448
H   54.162834   31.358557   46.037579
H   70.767235   29.857138   67.544212
H   40.189011   61.175270   24.792669
H   21.621639   25.960825   19.811077
H   53.009521   47.912937   38.965721
H    5.953430    5.039717   56.545265
H   48.220150   49.020794   94.025780
H   84.482529   56.688248   27.232035
H   38.521969   39.103149   11.627380
H   81.423592   75.431618   89.155182
H   59.425812   29.537605   62.793243
H    7.375984   79.139687   74.280525
H   94.585716   64.625778   14.524200
H   86.670197   52.535431   75.907600
H   95.278023   87.938133   12.589640
H   97.645157   30.775070   92.424629
H    2.105758   76.457230   73.755203
H   19.459963   39.005276   69.876091
H    7.705307   84.802109   66.523209
H   31.643238   28.966543   55.464325
H   23.603893   78.822876   59.930290
H   51.514572   20.386370   68.898224
H   11.154527   77.176765   27.458618
H   13.870666   32.483154   25.507729
H   17.820221   45.074932   85.226639
H   57.734604   29.694004   13.917973
