100
TIME:    9.153, STEP:  9153
H   98.342438   82.647987   90.766190
H   47.692307    0.850472   55.231899
H   37.102551   32.406837   15.898142
H   83.012909   55.547173   38.455498
H   13.180449    6.410503   17.530495
H   86.081177   91.291969   85.198334
H   73.260201   79.392738    6.229702
H    0.478545   80.452469   67.796562
H   28.629662    6.268364   23.938078
H   24.758272   47.808521   66.097694
H   48.865265   34.531723   58.084938
H    6.495094   82.483299   41.408104
H   60.093231    7.969946   15.507851
H    1.880172   76.863777   53.788334
H   91.778328   52.441750   10.733826
H   33.501694   11.174172   73.261780
H   88.077126   87.370735    6.622053
H   96.796982   49.453896   82.237869
H   87.827774   62.335041   45.576412
H   45.916576   11.439791   39.511375
H   21.124718   45.007668    8.816294
H   39.887371   56.234726   39.815765
H   63.536461   20.187010   70.472229
H   68.613052   46.324677   27.292459
H    2.221407   60.282814    4.134998
H    4.448820   56.273056   29.543615
H   72.806282   61.999645   81.576889
H   60.237190   83.670807   69.323967
H   10.194114   79.523888   24.504383
H   51.959358   64.302689   11.026039
H   76.284874   42.822819   85.222870
H   43.683247   99.626328   51.925011
H   15.081438   98.805862   22.371481
H   64.838165   34.904785   86.150597
H   53.162895   66.659462   81.928940
H   68.292145    2.334246   90.651161
H   57.690079   69.332283   29.685812
H   85.681435   91.448174   68.341881
H   58.722820   81.989525   57.318604
H    1.083539   55.310776   58.174561
H    9.709070   70.242081   57.985195
H   28.849014   77.496658   47.237148
H   90.057892   18.394623   62.602283
H   94.896523   66.282204   75.665352
H   62.699867   70.772377   39.359333
H   59.977165   37.490276   20.346399
H   13.251437   22.609900   13.329237
H   56.746273   89.642929   34.912922
H   32.581291   74.398232   79.357941
H   17.905340   70.050987   43.555286
H   42.873104   85.980141   49.915817
H   49.965115   14.408192   73.198524
H   98.724388   75.080933   71.281784
H   64.724945   57.868439   35.712044
H   12.019222   60.730934   78.191086
H    4.995810    2.905656   81.037064
H   76.511719   25.440758   26.514029
H   44.504333   12.499113   77.794456
H   12.156353   25.515913    8.809221
H   55.014156   31.318241    3.277489
H   37.079906   52.913197    0.757336
H   74.060051   42.747238   81.211403
H   95.457535   82.698509    5.821777
H   71.560974   91.623276   78.636597
H   95.620728   29.808620   47.947926
H   39.065529   87.250938   87.381157
H   53.206345   64.802460    8.968529
H   48.105499   41.007759    3.768936
H   13.085333   92.110138   86.172516
H   15.917663    8.376925   82.430252
H   31.376766   72.629539   52.358864
H   19.540178   47.684959   26.957359
H   10.199171   65.563927   27.066334
H   28.716343   70.125465   59.313301
H    3.380860   41.792538   95.288361
H   42.041199   94.194084   80.048080
H   98.070145   33.585087   53.074394
H   61.996944   52.234901   19.935371
H    0.434385   26.633472   19.804308
H   50.653374   10.411732   32.382011
H   90.000664   23.974344   27.045753
H   28.130119    3.832889   21.264296
H   96.820930   60.188755    1.627746
H   79.860359   95.400978   27.432339
H    6.656281   76.344528   60.472946
H   40.635914   45.259422   77.395248
H   78.463020   37.854500   59.993553
H    3.234200   72.643288    0.675646
H   45.636234   84.548164   53.331062
H   57.091457   32.697212   51.413071
H   98.601128   67.664246   26.756737
H   55.528210   83.872726    7.930151
H   72.178482    2.149045   26.820124
H   31.867456   68.474838   43.970272
H   98.339386   29.859653   26.411428
H   49.921875   34.289307   94.684372
H   36.079887   92.950813   10.790552
H   20.609903   39.350773   95.131737
H   72.685265   76.327065   78.378120
H    7.740347   43.752865   16.001995
