100
TIME:    7.604, STEP:  7604
H    3.095099   24.697670   92.184341
H   90.473221   16.912792   57.562893
H   10.476748   20.965992   34.080723
H   82.752914   19.365803   23.361156
H   27.060610   82.251472   59.529388
H   10.098973   92.970116   31.795387
H   54.443363   74.796844   85.095856
H   22.226891   46.444012   10.019176
H   66.707039   55.199814   21.441776
H   67.067482   25.567171    5.445543
H   92.949478   72.206070    7.294096
H   65.619888    4.839914   51.667793
H   58.867897    1.726438   69.441399
H   78.576775   81.638222   35.908092
H   72.964180   90.806076   85.225616
H   95.782196   46.655396    1.842131
H   12.638721   84.916290   65.610474
H   63.675953   24.828186   35.933464
H   63.695705   97.348892   63.968266
H   87.652390   44.332790   34.048256
H   13.044571   99.214355   50.856197
H   91.383224   54.178406   71.727448
H   84.217842   32.779381   14.790465
H   12.536329   27.794161   42.334763
H   57.621407   83.124924   92.697182
H   11.753841    1.937279   75.312843
H    6.377115   26.387121   50.845211
H   90.938469   11.368705   18.119696
H   76.512383   38.986073   97.727684
H   92.564865    2.640259   87.885094
H   15.320128    3.921529    7.774730
H   45.878414   42.419994   95.323723
H    5.971922   12.137716   82.825325
H   99.388283   76.861519   51.406464
H   91.712990   83.940544   87.685135
H   33.640034   81.006531   95.520149
H    9.121888   26.061026    7.630786
H   49.704063   19.794262   59.033348
H   24.104359   15.738802    7.428499
H   46.981339    0.321770   36.301270
H   15.572100   17.095449   21.491423
H   59.390251   71.422241   68.156334
H   76.727264    9.102013   50.717686
H   93.803177   40.275291   24.214497
H   97.065407   31.877293    6.804569
H   79.970726    7.950253   14.053350
H    1.141607   38.370064   98.454369
H   56.651730   73.688721   39.069958
H   87.303230    2.687641   41.147621
H   85.387451   46.471180   51.861290
H   42.979465   35.526779   33.583435
H   74.682846   58.144764   74.881500
H   66.603249   66.099304   61.241982
H    0.603981   83.138046   67.359879
H   35.353561   24.982841   65.025909
H    3.066532    4.535053   33.768692
H   78.311951   70.136177   79.191078
H   59.846115   58.783485   17.693300
H   89.984566   60.065014   27.726967
H   57.232071   12.256230   47.334740
H   39.367168   24.950790   21.528709
H   29.037117   57.165115   51.298332
H   90.296089   88.399445   12.041351
H   65.194145   83.185272   20.689762
H   34.138107   53.526157    3.696033
H   34.221558   64.255974   95.791672
H   77.485168   11.253202   34.184063
H   55.105492   52.418510   29.717773
H   35.884674    3.411381   83.323242
H   84.458046   30.573694   85.715637
H   80.570763   78.025879   70.936653
H   47.096165   99.116600   13.416768
H   11.195848   42.187214   66.785706
H   62.811077   68.161133   51.349426
H   28.762953   39.511677   77.842133
H    5.418178   94.917625   84.276436
H   57.388386   67.655952   25.599077
H   89.230072   53.514584   34.380253
H   26.152937   31.183376    2.516977
H   26.617470   94.793083   65.829811
H   59.675850    7.949227   34.463593
H   11.895047   93.783707   50.853077
H   98.844200   34.283848   54.110367
H   73.291573   62.849972   68.908470
H   82.078323   73.244225   10.630427
H   76.286545   88.361816   69.828018
H   75.008751   50.479729   86.131355
H   78.322258   96.594055   16.736282
H   13.488057   70.793755   65.999886
H   94.042725   96.425308   96.042450
H   35.209736   84.025429   94.044357
H   40.917896   67.372849   78.411827
H   72.884583   55.678295    7.033572
H   82.163094   74.498741   39.524776
H   25.123947   68.610458   90.818878
H   21.980850   95.458923   74.692360
H   59.032494    4.057788   99.875359
H   23.599840   62.703594   26.231546
H   46.475945   69.638115    8.121914
H   11.525759   83.502365   65.223785
