200
TIME:    0.584, STEP:   584
H   20.041578   61.333332   21.221764
H   31.030371   37.900169    3.862336
H   10.927733   84.194977   62.292046
H   29.438255   80.994514   35.504181
H   11.557807   92.447876   48.712608
H   78.427673   43.478294   55.367439
H    8.343169   55.060051   56.309750
H   10.597474    3.740811   12.861875
H    1.398670   82.349060   39.327541
H   98.751785   70.080284   82.503731
H   24.183863    1.942719    3.832390
H   32.200287   51.204697   29.133074
H   19.617229   98.424507   47.192802
H   88.144478   54.658291   58.842220
H    3.013516   74.592720   42.132187
H   19.273441   11.792690   46.902199
H    0.390123   23.829720   98.730263
H   28.393677   99.704086   37.396069
H   76.470917   17.247952   47.547829
H   91.150673   74.980553   24.135578
H   62.213432   93.930435   10.080404
H   82.370705   61.963173   57.318283
H   84.704002   60.040298   40.882118
H   15.894532   91.195473   90.507408
H   18.198532   26.539160   33.135509
H   18.376333   77.602921   95.595039
H    5.557489   65.699226   62.913040
H    2.405029   84.320168    1.636435
H   25.557209   46.073677   36.324051
H   77.504440   29.979662   86.726364
H   12.912373   65.821083   16.615391
H   25.670528   71.568832    2.072527
H   18.811470   16.387629   77.380997
H   85.041420   63.953224   44.303055
H   31.480238   75.586655   31.602350
H   21.824409   42.078598   83.421120
H   96.137878   67.004257   88.537453
H   15.899503   53.653721   99.700531
H   40.338745   34.082470   52.078148
H   86.783737   38.273876   50.258881
H   80.606667   89.154099   12.942454
H   30.461626   35.893417   29.630821
H   70.508011   79.879524   63.101780
H   36.514908   79.941536   31.051390
H   40.530701   86.790573   56.777855
H   36.218880    4.885960   46.429119
H   86.456696    9.358749    3.721280
H   81.741005   65.545357   35.280960
H    0.384022   15.697849   61.414349
H   49.807125   19.353903   91.159180
H   70.025009   66.142052   14.235749
H    7.988201   41.618877   70.937599
H   61.454422   84.582603   12.425039
H   17.286827   89.443100   86.797340
H   62.638107   68.734482   79.648048
H    0.895819   63.875488   89.912628
H    4.448752   18.047218   45.964527
H   71.166977   66.576279   99.094536
H   20.922419   81.122726   15.446515
H   35.147083   94.057533   60.635040
H   49.305412    8.664873   32.185936
H   96.118889   17.239794   51.703163
H   80.924423   32.332642   73.279327
H   32.460869   65.643120   11.348045
H   76.878220   81.207367   31.996328
H   25.245443   29.925795   39.046646
H   73.325539   15.905864   92.942299
H   95.415031   92.232033   94.082161
H   28.758615   10.501914   57.625740
H   43.256771   47.625683   50.964222
H   58.314255   82.541901   82.482880
H   22.472454   14.779778   42.356838
H   88.411758   31.610241   87.976776
H   19.072447    1.403334   70.587318
H   83.333755    6.440138   51.437851
H   62.008766    6.931905   60.629578
H   93.973602   42.756500   67.279732
H   13.813950   12.233992   36.204475
H   14.145885   45.019360   27.319500
H   63.092449   88.748428   77.947662
H   57.968258   24.288099   96.026581
H   41.762600   62.403934   77.222710
H    9.657603   17.439692   80.214714
H   13.456247   73.108253    5.063246
H   26.658310    2.961498   48.033447
H   34.358719   73.738312   20.621841
H   51.272911    3.500929    2.559978
H   72.470772    5.741056   24.417118
H   76.214920   72.894516   78.409668
H   21.721138    1.466254   51.080959
H   26.822678   37.862431   79.224396
H   81.659248   91.553650    5.873830
H   63.601215   12.982414   85.932526
H   44.602299   82.074821   78.550285
H   33.841423   52.272942   82.266991
H   55.026222   35.400429   12.887517
H   83.971977    2.380883   13.144373
H   97.438103   33.783966   51.850590
H   29.223106   66.332047   54.100334
H   73.185692    3.517067   27.334391
H   25.214262   89.937622   85.138283
H    3.363922   81.860977   63.967079
H   30.310194   24.598154   35.309841
H   38.405479   68.574615    3.823152
H   24.882730   22.952011   36.240398
H    1.041754    9.930735   27.785280
H   81.953896   34.368176   54.658279
H   62.724247   47.482231    5.439695
H   81.538811   35.747398   15.766743
H   15.417239   23.264093    7.220889
H   51.720512   93.077461    1.037880
H   99.806763   71.995789   94.429558
H   51.119339   84.266541   86.452888
H   62.058891   11.981133   66.083130
H   52.370644   96.293152   14.711024
H   99.999672   95.734200   94.453125
H   18.431446   13.286574   88.190353
H   39.025814   43.928516   27.102287
H   31.926504   70.628830   66.538071
H   79.860817   53.540585   62.175308
H   44.144905   24.045383   76.247551
H    3.446221   19.330921   58.306969
H   40.529854    7.314070   34.234051
H   99.009064   54.939964    2.800931
H   66.623039    0.434788   81.435875
H   60.325253   71.764160   18.889402
H   86.835976   50.796127   57.769485
H   67.904198   90.267967   37.907909
H   96.701057   40.031673   77.050850
H   84.418716   22.518867   72.362144
H   62.495247   72.902985   16.557522
H   68.496086   89.463242   17.439350
H   91.314461   99.331245   99.934052
H   84.052826   21.822811   53.941021
H   21.419987   95.150055   40.609451
H   53.195908    1.185358   78.613670
H   69.462234   87.441109   72.463600
H   94.152550   53.480137   77.763008
H   55.304810   49.144363   71.468727
H   43.634285   92.591698   85.899017
H   67.648117   52.952484   26.022095
H   41.401993   51.462944   54.266087
H   43.947121   63.092625   87.781281
H   41.950264   14.075500   83.824867
H   56.471554   58.358322   60.317204
H   58.544350   67.902328   13.370796
H   52.867241   95.271324   44.818790
H   33.259315   60.613701   66.851341
H   74.381561   50.429710   94.524719
H   20.427650   92.430473   77.123703
H   64.094978   67.152115   48.747242
H   48.268112   97.591179   37.372147
H   92.156403   18.975857   91.388870
H   19.003387    9.038774   67.451729
H   27.253437   62.963787   66.976616
H   73.714073   44.381870   64.644379
H   62.912090   71.200150   84.829025
H   50.936844   31.140549   17.783352
H   96.637535    0.438160   89.847359
H   59.822956   42.907928   91.442368
H   57.335007   70.433861   74.269463
H   27.452677   21.273602   32.563843
H   80.026848   19.571629   37.089016
H   23.901739   30.285343   56.481201
H   55.660423   33.760880   13.204588
H   17.840500   53.493771   60.421360
H   68.976311   92.002998   55.868458
H   23.932720   46.583839   62.237568
H   98.747215   27.051512   36.044647
H   42.171471    7.863744   86.529572
H   72.793213    9.724776   35.947205
H   34.279152   52.669823   58.514481
H   44.319519   62.672871   80.744827
H   66.989975   66.309807   82.220413
H   55.449341   92.448776   83.056557
H   11.528142   49.519005   23.616777
H   31.883839   63.667213    1.298051
H    4.778803    9.528923   69.278885
H   66.804207   13.382569   65.111465
H   69.936699   58.145164   91.237724
H   75.137360   97.516747   33.721100
H   26.166220   30.525967   82.174454
H   49.796368   89.805145   12.881973
H   58.972305   25.856930   89.845680
H   89.971512   73.414032   76.979599
H    6.461940   39.126480   85.675880
H   43.330261   98.632210    6.887365
H   73.894501   81.795845   37.563515
H   96.656166   62.707432   70.474930
H   55.869095   56.402035   70.049210
H   64.253632   19.643150   76.844917
H   44.832878   94.277710   20.242765
H   11.741492   25.707909   65.686592
H   29.093752   77.259949   40.245930
H   73.089554   38.890133   20.691025
H   76.167984   11.227554   24.853405
H   11.747886   94.939415   15.077619
H   18.912069   90.569328   37.265205
H    7.325992   12.574434   62.632179
H    4.419865   23.338108   92.969559
