100
TIME:    1.603, STEP:  1603
H    8.918255   75.018082   97.678421
H   56.679893   91.656990   79.117027
H    7.308950   89.230675    4.518121
H   81.745667   66.606468   52.298290
H   80.813126    1.245045   22.240273
H    3.158751   99.471443   37.496120
H   68.955742   69.580925   15.809547
H   93.893654   27.281956   61.012848
H   14.223198   32.171570   99.183174
H   31.033178   39.400063   70.463371
H   51.147873   30.742496   85.340225
H   94.656967    4.040893   78.825951
H   41.295372   64.723640   65.802910
H   75.710548    0.134989   79.229378
H   99.997643   26.840542   73.718765
H   37.071701   71.526848   99.978287
H   95.188675   88.005936   19.304651
H   35.399788   16.746994   43.973434
H   70.228615   45.602211   47.813793
H   49.329369   71.771103   25.472300
H   69.152344   96.633057   13.736500
H   16.054081   46.215714   82.762672
H   64.341667   81.585121   86.485870
H   70.105446   55.907200   88.021408
H   72.251579   59.041046   48.389427
H   39.308804   79.843750   38.923309
H   23.849941   75.843521   31.776045
H   97.285934   31.262325   19.758615
H   46.026672   94.528961   81.398003
H   62.459377   51.165787   10.822696
H   79.159218   65.793930   82.564850
H   66.971588    8.224835   50.866325
H   83.271072   51.198921   42.207855
H   45.832161   26.817238    4.219940
H   40.926750   37.745735   22.340309
H   11.929215   10.407454   15.128957
H   33.547836   45.831398   34.775333
H   97.737434   29.614674   35.560505
H   78.656265   46.288673   88.486862
H   12.209105   62.116657   64.156082
H   25.694038   11.186130   80.110519
H   87.552673   83.801476   78.111786
H   25.048414   73.112656   17.260010
H   76.997093   39.636673   37.466961
H   17.607521   68.642624   93.282791
H   57.406605   93.491554   89.680122
H   53.006275   12.212737   41.320747
H   56.325024   11.887777   67.762489
H   11.889012   99.689781   80.530533
H   59.509830   55.148083   71.547935
H   43.422321   14.884188   70.318634
H   83.036079   14.992289   68.829056
H   42.131966   31.303467    9.769428
H   39.570271   81.052299    2.553282
H   13.144577   99.032074   14.008720
H   95.571945   10.847271   38.056900
H   97.875839   43.293236    8.446098
H    6.694511   25.504177   72.265823
H   16.702507    6.498732   88.420273
H   53.236248   51.000584   18.016441
H   60.819256    4.026059   89.413475
H   42.017548   13.024246   22.823425
H   82.963593   97.840263   23.586281
H   53.115242   50.514412   83.619377
H   95.947304   32.814854   44.845676
H    2.870554   62.583168   40.967220
H   58.956985    3.783771   44.455700
H   69.635567    9.214059   42.835270
H   36.795845   34.604965   59.696472
H   62.857422   28.768900   98.357666
H   71.129723   86.332359   42.921970
H   41.792294   98.324448   73.986626
H    2.472585   39.014881   20.644985
H   94.910728   47.939148    7.937538
H   39.458740   30.924578   22.916393
H   63.558155   10.309465   88.068047
H   12.496614   87.609848   19.397600
H    7.292185   45.904892    2.966546
H   38.389198   48.806492   35.563698
H   20.911514   21.650759   82.821358
H   42.251484   45.865429   75.796333
H   61.598911   54.696365   52.735794
H   19.224445   34.011749   82.577759
H   60.443279   49.332378   17.013618
H   74.276505   48.616394   92.359665
H   14.396412   67.937675   53.100487
H   74.215462   86.801758   99.980209
H   81.760300   76.954605   79.080650
H   88.948677    4.920123   15.084728
H   24.611420   43.324394   81.520470
H   89.623878   59.987537   67.314163
H   96.892723   16.066858   64.063332
H   88.135963   75.661789   42.927780
H    2.163139   10.466004   34.900932
H   28.877960    6.141912   52.921471
H   26.322845   32.429619   84.651779
H   35.363388   59.673336   44.999283
H   12.750813   29.886261   30.388538
H   32.348656   43.760197   10.775822
H   38.793106   37.528553   43.294258
