100
TIME:    3.728, STEP:  3728
H   65.212799   80.144775   95.732925
H   97.568413    6.870244   13.160835
H   43.835670   42.110863   79.581184
H   82.102341   79.056206   35.818523
H   61.779694   71.573143   64.623184
H   70.214119   97.169273   47.942696
H   57.584484   13.069323   81.987389
H   26.872849   11.121898   65.902336
H   61.986580   27.861496   65.424049
H   72.964470   69.911919   53.676025
H   53.485550   16.246418   80.649300
H   13.552139   10.555927   27.565538
H    6.124914   36.158325   54.595535
H   70.492271   93.585121   40.942959
H   25.847931   37.027023   71.572121
H   51.629974   85.664482   23.584917
H   24.323677   28.549061   12.762899
H   80.804893   13.408139   70.300476
H    3.333469   34.747826   59.766178
H   92.080925   26.648066   70.152214
H   43.051910   85.083130   56.056740
H   19.787338   49.032959    1.804654
H   35.969856   64.302635   25.688290
H   72.669899   81.393188   30.199566
H   96.250153   90.509933   64.071938
H   29.563086   16.528044   39.745270
H   40.609272   87.508621   73.940834
H   17.984324   30.450134   89.998955
H   92.232193   87.325516   80.948036
H   43.940781   98.571342   79.754089
H   62.777691   56.351795   14.431450
H    1.145522   49.509277   54.144417
H   32.952427   95.724541   33.644638
H   35.618958   32.073708   14.696529
H   88.102615   77.111839   51.736504
H   96.695610   77.339874    7.818438
H   37.362823   68.008286    2.217232
H    9.908013   90.725227   85.516121
H   87.712280    0.192216   83.041557
H   12.057858   63.181343   31.345190
H   80.469620   84.100357   30.175764
H   96.569717   79.173553   77.946060
H   43.352283   85.855652   70.750114
H   41.300568   75.250336   45.237793
H   33.279537   84.803406   75.125671
H   29.991329   34.022694   98.305153
H   70.859665   27.579609   61.251198
H   56.438511   33.767151   99.245476
H   74.001572   23.696823   95.761871
H    4.064784   87.480171   22.923458
H   43.260197    9.728977   92.724258
H   86.306961   17.808369   29.325642
H   86.205482   43.624939   86.353157
H   90.362267   46.381813   96.323639
H   43.964676   85.299255   32.054569
H   98.230789    8.612783   65.716888
H   32.590740   81.976707   10.551319
H   48.461418   24.824173   17.530403
H   84.296211   96.285233   25.282185
H   13.010037   14.333998   57.577400
H   94.865364    5.203851   23.731922
H   66.600609   93.242386   26.673882
H   27.153826   52.891289   77.830315
H   99.034050   62.073898   25.924732
H   80.293907   63.095928   42.741810
H   72.328255   56.942879   66.612259
H   88.463760   77.247925   47.050579
H   22.847481   30.746149   44.422558
H   42.705864   81.916031   26.418652
H    5.916094   35.649994   93.883026
H    3.650785   41.747047   17.428123
H   66.575485   27.800232   29.568062
H   63.918961   33.903927   66.165031
H   48.145046   13.463787   81.649254
H   41.913052   33.953426   84.005409
H   13.788091   46.503006   45.082073
H    5.432798    3.427945   56.980808
H    7.128550    6.955294   20.322771
H   40.283356   42.568417   59.278839
H   16.697334    5.918343   99.750786
H   83.828720   67.849533    2.803100
H   21.040375   68.574234   75.044312
H   53.669598   69.484619   84.973541
H    6.631086   31.172394   22.921951
H   70.806564   15.695257   86.364700
H   65.495178   45.990746    0.666701
H   16.139425   32.296959    1.308661
H   15.964815    6.821600   56.972939
H   33.051376   86.603447   97.700569
H   36.733181   55.897255   57.482529
H   76.587708   74.731895   12.190347
H   54.129662   75.869682    4.561462
H   24.425842   39.375961    7.296479
H    7.552572   39.363495   78.177849
H   92.134560   15.797649    1.753261
H    1.839085   48.516243   74.892815
H   66.691254   81.622978   22.788687
H   20.550695   47.979370   96.383919
H   31.119957   52.920238   32.777908
H   70.770302   82.966438   38.609818
