100
TIME:    6.777, STEP:  6777
H   59.021317    0.537649   92.941483
H   13.312008   72.100700    5.416368
H   96.259323   61.468407   43.791058
H   82.614105   53.438324   68.693726
H   34.470078   15.963774   81.953384
H   22.925480   93.866066   49.895626
H   97.788300   18.952595   20.423380
H   87.227455   74.897980   85.952171
H   87.036278   34.712555   73.499748
H   89.655525   13.692368   73.064705
H   69.875000   38.929722   86.954445
H   97.180054   63.386616   10.535034
H   11.612320   51.770741   51.624687
H   19.524574   84.187263   72.973473
H   62.919441   64.677788   24.996952
H   29.035927   18.987953   70.490723
H   79.141029   30.216740   90.325386
H   45.990398   65.070236   64.597694
H   50.817997   62.658966   20.401104
H    9.934769   61.892155   77.742302
H   62.119934   81.545685   73.301735
H   12.097931   53.080551   42.154114
H   95.259483   39.505318   38.453339
H   89.376961   17.900850    3.754003
H   87.200386   48.710655   86.589577
H   15.652885   26.314159   53.137672
H   77.691154   60.767120   34.434177
H   60.717232   72.767159   90.783890
H   58.530281   63.954418   36.818970
H   60.853275   23.109337   22.140480
H   82.773491   29.762600   73.204338
H   93.661285   65.267075   71.883232
H   47.720287   72.644875    8.322637
H   64.446220   52.651077   86.247574
H   12.295263   46.556038   37.369766
H   61.750622   16.232342   98.119667
H   29.801815   56.347290   42.466343
H   83.886345   34.930775    0.676598
H   59.014874   33.755913   87.570923
H   24.876125   77.743668   71.235641
H   72.091766   88.718895    2.008750
H   29.085434   68.179153   25.938332
H   69.610138    4.141161   90.984184
H   46.608585   26.394369   43.354630
H   68.800301   64.503860   36.036808
H   90.646416   92.177750   10.693537
H   94.679977   93.393753   90.517006
H   56.601345   65.170883   87.900299
H   63.125420   71.178078   74.138107
H   68.023682   33.883709    9.683648
H   43.036251   15.367857   24.866276
H   34.488590   34.884232   29.168526
H   49.448650   61.304077    9.270601
H   19.753342   96.627777   30.865776
H    1.199647   52.509384   57.991726
H    2.036505    5.404977   61.921722
H   25.884516   93.998741    0.536439
H   21.426233   36.883812   38.996323
H   24.764816   25.116642   91.213463
H   11.807518   48.691578   70.856590
H   87.198692   63.407829   86.007736
H   58.388954   64.862717   88.715866
H   34.150723   44.833046   68.751221
H    8.403698   78.680283   43.145306
H    1.312518   19.576138   26.681791
H   85.025726    5.368534   46.892975
H   43.837418   82.660156   94.255081
H   12.232126    5.120687   90.182388
H   94.665962   62.834335   35.191227
H   67.683067   89.005302   87.462708
H    6.831513   34.294525   80.855202
H   15.172828   26.609669   52.802895
H   65.118134   83.088821   87.985657
H   81.019905   20.503475    0.487858
H   88.917473   38.303425   15.140572
H   85.869865   41.915119   39.923233
H   82.278900   39.234409   10.932623
H   50.376110    7.588409   88.707726
H   86.495003   33.612537   93.291145
H   67.174576   39.844795   37.076500
H   43.488312   99.392838   85.034775
H   49.836960   88.420624   20.040962
H   46.536263   20.453405   75.351044
H   16.396828   92.081444   44.442455
H   22.345610   24.979607   90.798317
H   95.316025   57.986588   12.398767
H   19.775301   10.609546   46.696922
H   65.021812   62.772648   25.310905
H   96.324081   16.839914   72.763680
H   67.161789   30.451832   66.476089
H    1.365401   39.370201   76.579636
H   79.728271    5.174830   62.651215
H   19.872089   30.862995   43.080391
H    2.238145   24.325525   83.761734
H   39.422813   42.687653   71.814636
H   53.674011   28.114847   17.408325
H   24.675821   56.597794   47.438034
H   25.196146   21.785641   42.832962
H   85.872520   66.066933   77.392799
H   60.155293    4.726685   44.890949
