100
TIME:    0.426, STEP:   426
H   88.514076   82.954994   98.755997
H   89.420235   27.841759    4.872405
H   87.083710    4.552342   18.337929
H   81.548111   15.098768   16.812407
H   91.355408    6.903299   54.154411
H   21.410461    0.750002   20.933504
H   30.644276   90.102837   23.766527
H   86.403534   25.456570   69.080971
H   43.156105   45.335281   73.272804
H   63.198677   22.502609   24.371332
H   60.629547   83.383652   98.715324
H   39.581783   45.043770   62.605827
H   16.164860   35.933914   82.787773
H   33.988819    3.763811   89.658485
H   85.683846   31.971411   30.294504
H   84.395233   74.476814   97.678207
H   89.816795   10.169052   12.141355
H   10.247890   73.984222   84.777634
H   51.897797   96.223175   85.806122
H   81.117958   96.600159   45.250603
H   38.997101   13.807304   45.680206
H    3.195413   44.662209   82.982674
H   80.056313   91.157585   20.161736
H   79.461502   41.790958   75.436996
H   14.347536   52.389515   39.704300
H   44.705662   14.916165   49.244087
H   25.343943   24.768322    8.419592
H   96.596794   76.323425   80.856033
H   20.434250   87.742241   37.034393
H   17.328375   80.296249   17.254364
H   32.859379   60.244118   75.701836
H   92.655365   40.741219   59.827126
H    0.363981   37.313606   36.174400
H   96.101326   34.682251   53.804314
H   70.182930   26.717972   50.668022
H    9.593957   17.950197   19.178526
H   20.658291   88.934425   42.032360
H   46.382141   51.157207   52.502132
H   31.568462   71.414146    1.296001
H   23.069336   72.303169   71.551750
H    6.130100   70.796455   52.377140
H   93.334709   30.976694   22.814199
H   14.910464   66.054535   32.243874
H   52.156204   19.910810   22.383926
H   19.703476   15.083987   92.561096
H   72.510735   71.212456   84.988853
H   40.578236   48.721973   31.263372
H   56.262165   99.769302   94.936432
H   77.481316   97.168625   27.480261
H   34.824368   37.233387   53.868919
H   43.512119   28.516333   57.908558
H   25.835253   24.208992   46.096504
H   17.715899   24.478821   78.129311
H   66.823029    0.251202   50.614338
H    6.845106   95.849945    4.020941
H   94.099258   12.084238   78.124756
H   23.258629   77.254829   96.503487
H   94.338074   36.656425    2.581820
H   23.874832   56.768280   78.779770
H   30.907043   60.532707   51.493126
H   86.572830   58.758415   81.181122
H   83.791565   23.980209   76.080566
H    3.127614   78.103371    4.332703
H   72.292854   44.111816   15.573874
H   49.231560   26.819923   35.233551
H   75.175545   21.095387   71.374306
H   53.390038   63.088062   87.629135
H   50.939095   41.900986   86.567863
H   78.134666   19.176674   33.514553
H   39.016060   69.571434    0.834951
H    8.504438   66.419579   57.038212
H   38.841404   37.387489   87.811409
H   79.215591   97.236031   50.826084
H   20.814362   22.421244   77.890160
H   82.710617   29.249846   33.692066
H   35.729763   34.874977   67.264053
H    5.632615   89.621696   98.571716
H   51.994583   22.865292   37.966846
H   81.972160   52.254543   22.438507
H   78.633652   85.753761   84.220947
H   19.218304   33.688824    5.449961
H   73.286934   47.009659   51.157944
H   44.749996   14.367797   70.474274
H   79.475067   48.614964   24.519753
H   31.587538   22.236908    6.456559
H   41.488461   24.701530   71.365959
H   95.606285   72.379250   43.856472
H   62.812927   71.187447   91.311134
H   64.523628   70.453209   24.715347
H   28.672012   91.757584   39.441143
H   41.456242   96.434875   42.458080
H    9.806482   27.545050   41.640755
H   12.617020   40.395157   51.871452
H   88.402138   39.072723   55.540684
H   49.226871   11.570553   25.875340
H   29.107468   78.909050   45.445564
H   28.788202   92.127800   12.689320
H    8.429286   19.864807   49.219559
H   88.418510   38.686611    9.368382
H   65.697525   67.762413   56.656235
