200
TIME:    0.092, STEP:    92
H    4.923408   62.966175   12.808868
H   26.645155   30.717369   83.888969
H   21.239750   62.660217   38.058403
H   12.853726   75.243904   48.369858
H   16.781567   79.978210   55.786385
H   94.433289   56.831947   69.930534
H    1.215011   55.409142   46.786709
H   99.572060   82.495392   30.325703
H   81.418007   89.725006   51.329876
H   16.071102   76.972008    1.910041
H    7.035012   91.432564   88.284729
H   30.165802   38.072510    5.690332
H    7.541698   82.096077   67.357475
H   11.399334   52.582516   35.134090
H   26.767416   70.805275   43.342743
H   33.614307   32.064342   57.515678
H   77.245071    0.786983   22.617680
H   40.076660   76.052261   46.155239
H   60.101200   35.059856   40.305138
H   89.585396   81.737144   43.207935
H   56.308922   69.370224   32.621021
H   93.323891   43.157326   76.278030
H   99.437126   63.617538   52.687386
H    5.495267   86.745247   92.056038
H   96.813652    6.751511   50.691387
H   18.783606   55.768574   11.844641
H   96.029976   55.827091   43.131241
H   91.113800   64.024117    0.341847
H    4.835154   61.028267   39.204987
H   99.737381   16.799616    3.745319
H   13.554718   45.266026   16.013866
H   34.617382   60.037582   89.959358
H   30.699318    5.800911   71.371384
H    1.324961   63.416451   35.703415
H   55.090794   95.916489   35.344852
H   37.895714   53.296417   77.779366
H   82.016602   77.623367   84.843849
H   40.235752   40.926929   21.821808
H   58.547760   51.700283   41.141853
H   91.502090   40.297100   69.477631
H   80.460587   12.138194   96.611565
H    5.972754   46.210358   44.219582
H   79.366653   91.181801   44.832706
H   37.610977   56.046349   13.455161
H   23.720388   71.779678   39.023033
H   43.142509   17.690231   41.078274
H   77.185150   33.463020   92.933830
H   93.718941   65.552864   52.968216
H   81.356705   34.368557   61.059628
H   67.413315   17.133612   11.973963
H   81.728928   72.369377   33.734104
H   26.795725   33.150616   60.359131
H   48.185783   98.657677    5.991943
H   24.609283   79.060471   79.511482
H   83.463425   79.676407   95.559822
H    7.202909   75.996086   73.801910
H    5.852857   16.185402   51.242176
H   65.791733   55.138874    7.974657
H   31.304110   71.618454    3.546937
H   46.526310   96.820229   69.730164
H   50.898842   18.263926   46.560585
H   87.277542   16.074282   47.931950
H   67.369949   22.140543   89.878021
H   20.540138   64.941185    0.363114
H   68.969254   73.872711   11.877542
H   44.545227   10.811337   30.203018
H   91.703468   26.283806   82.777382
H   98.170219   91.113441   84.341408
H   11.258232    3.853240   63.853065
H   46.088909   39.050442   50.990498
H   58.530090   74.032349   69.322540
H   36.299717   27.712038   45.800823
H   72.796524   23.104443    4.451345
H    3.043743   12.217774   56.264355
H   77.342911   98.475624   74.571671
H   49.572884   24.301746   63.844589
H   96.053131   24.440508   74.239021
H   32.036983    3.274929   53.028389
H   10.405361   23.099470   38.216381
H   70.506165   91.492355    1.280456
H   37.086636   32.603333    3.330455
H   20.128883   71.251656   92.432549
H   11.577132   12.042865   94.610008
H   29.500338   57.020058   89.027802
H   44.178528   97.758850   61.976425
H   20.497543   90.952606   30.863708
H   29.222025    2.475710    1.432032
H   76.562263   24.052622    5.859979
H   61.160812   71.682564   76.627724
H   24.185417   79.413399   56.493740
H   47.446701   33.615162   81.412781
H   85.086342   87.236938   95.138474
H   40.229038   18.531265   99.944946
H   66.664673   99.750816   65.040855
H   21.374710   58.928185   61.775749
H   75.401100   24.400322   36.020191
H   77.297966   19.398176   91.955170
H   10.963305   26.138912   47.192295
H   40.371483   71.260605   52.356758
H   64.631096   95.522293   27.214273
H    3.263071   76.334351   61.970512
H   85.068825   74.417465   66.680977
H   20.111494   42.578583   28.434521
H   14.764231   67.666229   84.285141
H   25.534929   29.417694   20.289211
H   81.563942   34.019001   50.819801
H   58.647411   28.259089   56.948013
H   65.622902   28.591927   24.464422
H   69.035362   41.957832   91.976036
H   99.612518   30.123911    4.812914
H   45.247322   97.352882    0.691722
H   80.051239   59.623055   88.825340
H   59.664551   78.557220   97.154579
H   63.725517   22.588043   78.770508
H   68.789162   75.805664   31.961952
H   20.078365   10.127039   72.257721
H   38.659931    6.358666   82.454758
H   41.521999   19.711765   36.936882
H   13.241714   52.157063   90.854294
H   66.876900   43.721004   43.821777
H   39.009895   20.775944   92.369530
H   24.675007   30.986042   43.834724
H   28.668280   28.064510   19.638731
H    6.257842   72.645027   24.346245
H   81.344559   12.615627   97.708099
H   42.300167   58.302731   28.388983
H   99.065407   48.498886   76.770523
H   78.665947   86.409203   33.752605
H   90.646400   57.840923   88.263039
H   60.571701   24.850830   63.980217
H   42.634621   90.470123   97.755447
H   87.380760   84.583481    5.836825
H   92.921028   75.394142   96.274231
H    8.177773    9.208305   47.885208
H   97.114792    4.046167   63.217758
H   66.299942    1.816795   85.861992
H   68.647690   86.187386   47.970955
H   89.955956   68.841408   85.536842
H   42.444763   42.263901   71.585091
H   43.367775   16.188196   99.569855
H   43.290600   67.421417   10.129262
H   64.051590   36.513985   42.796772
H   59.763176   54.036915    4.376118
H   64.494759   31.885231   75.671913
H   33.345242   74.675491   44.229008
H   40.517387   59.425545   36.934410
H   41.230888   97.425926   48.341602
H   46.693672   78.927818   69.674095
H   61.228733   70.970993   99.415741
H    4.722367   87.024521   95.529579
H   81.436897   58.796459   52.461491
H   27.557482   11.204832   52.790314
H   69.300354   37.372555    8.660324
H    5.997527   97.745285   79.609840
H    7.743775   49.970486   58.075432
H   59.108574   43.161930   49.507660
H   57.762066   56.445461   79.003342
H   43.941895   39.034500    6.256759
H   19.155500    2.291991    8.093362
H   65.338509   62.982513   72.561447
H   52.502167   90.422112   87.350975
H   50.552898   23.823277   36.826126
H   58.848690   41.022476   37.293591
H    5.842196   15.831861   77.531067
H   60.371269   17.066465    8.370340
H    9.363791   69.147804   63.110859
H   77.448326   99.960762   50.652744
H   23.502926   24.198875   41.892719
H   92.061943   28.651510   37.206406
H   19.718941   11.576585   92.069977
H   82.192383    3.873756   35.988495
H   51.275734   70.943817   57.003632
H   34.813370   83.813614   94.588333
H   73.044518   78.092072   70.815872
H   78.316650   96.149887    6.189929
H   96.337753   46.861412   23.144754
H   36.938145   48.297844   80.716835
H    0.418313    9.059715   62.987743
H   79.386482   24.820086   70.865829
H   93.340782   52.867516   84.297203
H   84.119873   79.885796   45.160385
H   16.242476   29.925381   64.213181
H   72.448441   90.319321    3.140812
H   48.258324   24.946238   71.745522
H   83.609055   94.753601   79.006577
H   96.162041   34.974930   83.213478
H   26.198866    7.059721   95.986099
H   97.531311   60.955784   20.347980
H   10.904350   60.513416   64.851944
H   46.922241   59.078396   63.833149
H   40.750095   35.920906   80.358345
H   48.866188   80.907166   26.509504
H    0.813049   14.003051   54.415939
H   37.689320   57.623932   30.330473
H   89.973526   60.865948   22.300407
H   74.966812   10.020283   31.594044
H    8.477508   81.523827   98.471390
H   33.210785    0.347565   51.140617
H   13.886924   11.197779   84.636147
H    9.551426   40.006733   99.804977
