100
TIME:    5.482, STEP:  5482
H   46.596840   19.294422   94.127090
H   49.075264    1.924122   23.762756
H   73.989655   68.301056   58.996479
H   82.396744    6.791298   39.675941
H   46.069275   12.163897   17.065807
H   43.011654   95.269035   21.646879
H   65.656929   31.508541   19.152620
H   89.011902   62.863491    4.854178
H   18.869911   59.221451   55.015503
H   25.031271   95.096764   22.358442
H   90.332748   86.822861   11.695862
H   46.609428   98.475182    2.714772
H   94.249191   30.083595   80.302666
H   83.645241   88.178810   74.423302
H   47.180702   80.353287   87.257660
H   81.104156   32.253372   77.987030
H   83.277229   44.561848   72.436432
H   18.296576   28.083076    9.491686
H   30.652451    8.328486   52.173923
H   44.821281   89.397499   89.572701
H   38.967064   10.466385    8.453804
H   87.945023   51.361420   52.435333
H   12.550937   50.037468   75.503586
H    9.700787    2.408907   99.931564
H   33.515533   51.410484   77.025673
H   21.556273   64.599213   74.914642
H   89.359924   14.596180    8.736826
H   69.985756   12.320915   47.979744
H   30.372093   46.461704   98.035858
H   11.197897   55.160271   19.191792
H   31.805889   13.637395   75.660545
H   11.893988    1.052414   91.767876
H   56.502842   67.393135   91.658806
H    9.728688   71.330162   40.802544
H   44.504196   44.522995   58.542435
H   49.178288   14.802298    2.191365
H    5.594511    3.771949   40.425396
H   37.410862   58.633053    9.291784
H   13.674296   61.973381   13.065870
H   46.850018   98.976311   69.347740
H   60.595718   44.282745   71.499245
H   38.929558   57.894287   60.344273
H   58.460514   96.373871   97.445107
H   29.299541    4.658034   16.737181
H   81.132423   15.601260   25.220259
H    7.360878   67.477585    5.432402
H   84.562790   22.968010   78.087883
H   56.532185   51.832794    7.772975
H   25.274887   78.430237   25.794281
H   40.851788   14.170897    0.246967
H   43.126377   40.392075   11.216100
H   71.547523   55.051418   14.178169
H   22.584751   53.795227   84.483360
H   49.739342   17.757805   73.722130
H    4.309569   39.021244   46.975452
H    0.423532    6.767191    6.006592
H   43.786240   31.366142   77.371223
H   17.854622   59.180489   72.351425
H   22.630713   70.397026   90.627007
H   97.264175   49.153568    7.689461
H    5.509018   23.634014   86.976128
H    4.350616   76.916397   47.312096
H   46.233776   33.201706   57.553253
H   19.478279   71.625916   78.304443
H   49.913551   23.005516    6.083553
H   64.578056   69.746635   70.321953
H   47.737640   37.889462   31.734001
H    1.686395   31.059359   28.273901
H   30.124189   55.884773   16.410408
H   41.450104   23.870438   90.189606
H   47.954857   22.405396   96.386665
H   21.951454   69.588013   57.989197
H   49.554962   47.143143   21.188911
H    9.530560    2.463775   77.431908
H   26.480959   36.455853   16.970818
H   55.258598   58.918762   27.060781
H   64.686028   51.403378   88.000191
H   89.534653   92.265739   17.189341
H   24.395206   37.416363   78.846489
H   30.680134   10.388106   48.641998
H   18.145945   85.995468    7.635631
H   52.650185   80.022430   28.371798
H   64.625023   98.797791   52.022282
H   27.303114   81.265549   62.719990
H   85.400902    5.981729   16.333839
H   25.122303   10.416312   22.470093
H   33.285118    4.766797   84.946381
H   44.194633   66.399475   38.737915
H   69.450302   88.943596   83.355110
H   81.656464   83.731369   20.186193
H   48.368706   69.442505   49.231609
H   83.911385    7.778352   37.980690
H   36.860138   92.006783   42.936054
H   77.081612   45.759716   96.442055
H   61.811043   58.686367   42.055882
H   46.712326   79.253693   84.296371
H   27.466734   82.281532   21.914505
H   26.987417   62.913635   68.308571
H   47.563171   60.481045   85.861977
H   79.718719   37.957279   69.642990
