100
TIME:    1.731, STEP:  1731
H    0.262352   63.279800   97.561234
H   53.119347   98.596443   87.191246
H    9.509184   98.439659    3.015435
H   81.767151   61.333031   45.281689
H   79.666641   11.504796   18.770058
H    1.173814   99.332771   50.172878
H   62.247013   78.223503   25.819313
H   83.833107   38.355198   49.259918
H   11.076714   19.864929   91.126534
H   27.535620   41.237953   75.475090
H   39.241623   35.892887   73.010147
H   89.772202   10.456665   69.714622
H   33.153770   56.979500   53.081093
H   69.372658   99.740425   88.969612
H    1.554696   15.407423   67.566422
H   31.925217   60.331215   89.353287
H   84.897659   96.470779   30.958460
H   38.135139   10.522169   39.535934
H   72.222755   50.972328   54.556957
H   45.881126   69.052353   34.187141
H   61.556641   83.890869   10.262379
H   28.327518   46.384659   71.864235
H   62.632683   80.544106   82.823761
H   58.212868   57.442356   78.515549
H   67.673454   48.889679   49.333763
H   38.721889   76.029297   26.926031
H   12.812344   70.523209   34.316082
H   86.485153   37.236935   23.989573
H   48.809875    6.142095   75.347221
H   67.367577   47.997818   20.997990
H   84.194374   77.272446   72.435944
H   75.053619    4.688573   39.016716
H   92.286697   41.833687   53.739105
H   51.240364   15.086788   98.827606
H   37.745110   28.069954   30.134254
H   23.058609   20.462629   14.689015
H   45.824203   41.143898   44.861271
H   92.446419   27.271900   44.592731
H   72.902359   43.556252   76.219284
H    0.152971   50.133259   74.226395
H   16.946968   15.578219   83.126144
H   76.048767   89.545616   84.125458
H   26.150953   73.880234   26.505615
H   68.823265   41.782181   49.981609
H    6.504494   63.591923    4.236109
H   55.755238   95.932961   90.199654
H   54.357838   19.117876   42.414497
H   56.331860   13.205648   75.682411
H   15.630223   89.088219   75.425064
H   62.194401   57.096325   62.594967
H   43.412556    2.526285   71.668243
H   89.256783    3.114797   60.426296
H   44.787239   32.045654    2.335332
H   36.606403   78.964409    8.201246
H    2.954385   10.253302   15.094902
H   95.732101   10.712749   33.699478
H    5.990530   39.599876   20.620077
H   97.163422   13.415851   68.968948
H   26.797234   11.907180   78.594101
H   44.789959   60.839451   14.375926
H   68.893478   98.073433   79.433006
H   37.474579   11.832596   17.031433
H   91.645233   89.111748   14.804997
H   61.905281   51.210701   80.144768
H    1.027489   22.591671   56.766575
H   95.007332   56.219887   48.535580
H   48.687454    8.208936   50.635387
H   60.793770   16.534859   48.954411
H   43.175728   25.407700   51.668152
H   65.450745   35.207130   98.088135
H   67.065269   77.623375   41.386814
H   31.238546   94.076401   83.357719
H   94.126755   32.683826   17.362759
H   92.094322   39.838562    0.330087
H   45.629639   31.106707   32.619976
H   66.583687   18.513079   79.454765
H   24.118196   76.516098   21.661760
H   13.305858   37.534775   10.035716
H   44.524940   48.431492   36.991432
H   14.634117   14.679567   71.794014
H   44.756367   47.189648   83.446724
H   71.202667   55.532303   42.032669
H   27.323078   36.148468   94.769165
H   69.248360   60.285503    5.322212
H   68.044083   40.609558   79.951462
H   11.450123   72.638847   61.989159
H   82.764290   77.495117    6.083883
H   83.820847   66.706558   77.749550
H   91.604927   97.793373   14.037609
H   13.294466   38.057793   86.096642
H   94.862160   66.899078   70.017288
H    6.363529   25.693323   66.502785
H   96.348854   79.497726   52.830124
H   14.535013   18.230165   43.530815
H   26.664581   94.676605   55.862877
H   36.895111   27.375380   78.040451
H   25.203560   67.019035   37.637955
H   13.220784   30.976105   28.340199
H   26.251461   44.311954    0.054053
H   46.742325   34.240467   30.966091
