100
TIME:    8.908, STEP:  8908
H   14.910594    5.115631   90.990494
H   54.458817   87.575302   39.782948
H   32.891239   14.781177   18.773926
H   82.971786   65.640862   51.885712
H   15.375826   86.772736   24.172703
H   89.879395   91.557396   60.935860
H   86.101616   62.850174   87.070366
H   19.735062   59.256138   90.290535
H   34.652229   29.824802   39.360371
H   31.450949   44.290684   56.504951
H   71.654572   24.674248   81.685478
H   15.846710   70.202644   58.847755
H   75.716019   22.798576   39.854836
H   14.010823   77.618935   35.143047
H   88.802559   74.326363   22.515404
H   43.352386   32.602806   93.598694
H    7.778624   71.164757   84.318733
H   91.555740   61.375664   90.731522
H   84.010864   52.056301   32.669575
H   52.516727   16.642714   22.830622
H   35.663368   69.398468   15.466238
H   16.398981   55.909485   60.679794
H   66.807564   22.178644   77.481735
H   91.376190   43.393768   45.488895
H   10.983733   79.711655    2.326437
H    5.604454   63.495651   52.600117
H   93.931999   72.183426   76.716965
H   80.910217   72.235031   61.225945
H    4.866559   57.295345   36.085350
H   42.564751   70.366379   91.549408
H   66.643532   20.853619    4.606468
H   28.213734    6.395033   74.605904
H   97.823746   16.730724    0.299942
H   54.486526   57.357635   96.472328
H   59.260231   85.209419   67.023926
H   46.994465   83.144897   91.421272
H   34.192345   78.304451   10.380834
H   95.808769   95.930519   51.053162
H   69.064201   87.327965   81.061203
H   24.159754   78.246590   38.897484
H   26.452444   61.834892   52.213100
H   49.496216   76.535889   34.730320
H   87.949432   16.924496   44.906551
H   10.539173   62.169128   51.710621
H   83.952576   80.436150   18.393106
H   63.137985   32.817272   19.351049
H   11.335973    9.285295   10.976379
H   56.731319   87.119507   19.753696
H   25.420380   94.690285   89.130127
H   12.762873   66.320061   60.686520
H   42.889927    9.633400   47.332581
H   38.058300   37.142567   89.281136
H   93.643898   73.660339   85.510147
H   70.399841   61.866661   24.901196
H   31.527145   39.259415   76.108795
H    4.690662    3.163372   89.377441
H   60.979019   32.510078    3.212308
H   62.747742   35.636879   84.104881
H   92.833061   15.163339   27.618063
H   71.181709   12.486035   10.245872
H   21.624105   64.306030   19.858730
H   82.755577   45.027664   92.295769
H   78.825378   99.416649   22.622162
H   54.737133   90.288666   85.287216
H   85.897141   49.377293   25.132170
H   54.116341   99.430656   72.894844
H   72.862869   56.332928   97.139633
H   65.029251   26.995892   92.056519
H    0.874194    9.714256    1.537502
H   10.941848   96.071060   82.949890
H   39.158176   89.299080   55.297249
H   39.715050   55.819725    8.999187
H   26.173538   77.683830   33.348721
H   34.108990   85.632362   73.870644
H   91.578979   41.431782   76.712234
H   36.248543   78.492790   96.534439
H   75.819168   54.791180   48.728500
H   50.488270   68.253960    6.404192
H   88.684639   27.353115   17.069666
H   62.668602   23.758570   53.489037
H   85.204292   21.439707   12.402312
H    9.745745    2.242432   41.760582
H   81.325249   56.091465   78.296257
H   63.004005   74.436012   49.808552
H   18.585526   91.671982   84.223022
H   46.275295   36.259216   60.381775
H   62.100025   55.667992   48.311043
H   99.294182   92.247475    3.215805
H   40.552006   98.189598   55.334846
H   78.752365   42.777817   42.655861
H   88.574730   54.435390   21.582787
H   37.400692   65.446136    3.262539
H   56.473454   94.798820    7.873897
H    8.189344   53.610950   27.450525
H    2.575449   51.805950   20.782328
H   29.685898   43.964294    7.339134
H   55.527061   78.890678   24.881355
H   21.082811   27.228634    0.051462
H   84.356560   75.269096   98.898216
H   92.522018   50.038990   39.604404
