100
TIME:    6.357, STEP:  6357
H   87.424637   39.052818   93.326004
H   24.910137   49.341373   78.935280
H   89.036728   31.251465   48.722546
H   82.543610   70.741791   91.713745
H   38.231979   82.299011   93.341629
H   29.439915   94.321083    8.300926
H   19.800278   90.592339   87.578758
H   20.238632   38.562946   24.514973
H   97.360680   75.093719   99.935600
H    1.127234    7.661010   56.619999
H    8.942368   22.030005   27.411415
H   13.210800   42.334064   40.430428
H   38.413467   77.169930   93.358086
H   40.319817   85.481819   41.011021
H   57.818123    2.194254   45.193943
H   45.923111   55.722572    5.354184
H   12.915065    2.437886   52.091133
H   37.008617   85.507553   79.158241
H   44.277927   45.038269   98.274734
H   21.249313   70.812294   49.146721
H   87.043335   23.357723   84.702797
H   71.832123   52.522995   77.921021
H    0.867174   42.921150   50.469635
H   28.400673   12.876436   34.947117
H    2.222223   82.018097   83.487770
H   17.567530   38.730949   92.633690
H   13.907303   78.224991   26.099676
H   96.156998   53.162971   76.902664
H   49.397896   25.848598   56.673096
H   44.748234   33.504234   88.752182
H   66.245476   92.100258    6.433346
H   67.142120   76.873215   10.764687
H   18.135315    3.374411   70.485718
H   46.700554   91.141678    3.941668
H   22.748123   78.355965   11.815242
H   25.240602   83.336052   99.439857
H   89.518044   71.728149    9.372024
H    1.247323   42.618000   71.036461
H   76.742218   42.907524   28.271471
H   64.434097   17.062008   38.189922
H    0.796259   74.305748   92.113869
H   64.480637   66.532120    4.496519
H   65.995636    1.621570   60.645790
H   73.426880   19.344809    2.290003
H    5.233475   81.076736    0.095447
H   96.068169   84.166885    8.987223
H   91.398727   70.553177   86.485939
H   56.578915   60.845016   61.913059
H   50.849571    5.963943   90.890427
H   59.207066   27.489908   39.050430
H   43.065090   55.916306   20.439472
H   14.072372   73.857880   56.738716
H   40.736034   58.868774   33.663792
H   29.478531    3.479903   12.333442
H   34.641594   15.701768   54.418880
H    1.513395    5.846776   76.219513
H   99.259041    6.117915   60.591057
H   52.700104   76.547203   49.814194
H   91.640305    7.368161   23.455910
H   39.522026   16.407795   82.802391
H   60.705158   82.941422   18.754696
H   73.295570   68.772018    7.718743
H    5.636699   73.492714   97.551880
H   79.564011   76.392380   54.549572
H   84.643356   53.121838   87.568459
H   10.826473   26.247643   22.059294
H   77.534317   68.138062   73.977982
H   41.244377   81.100624   70.103958
H   73.735176   93.012863   61.534153
H   59.174141   67.882256   88.347107
H   20.169086   62.870880   85.892433
H   49.802906   40.548630   22.051208
H   92.502472    3.864449   98.752258
H   90.267647   47.084217   25.441820
H   68.666008   37.704212   83.301529
H   75.942802   14.996422   68.182831
H   44.134365   75.586693    3.483879
H   30.643749   35.051437   65.514671
H   66.352486   34.846210   88.606392
H   87.772110   62.723824   73.259972
H   35.269165   95.047745   59.931934
H   18.321524   85.696930   55.177158
H   19.969032   13.429772   35.352104
H   87.500954   56.141502   82.803246
H   42.796455   51.252037   31.512436
H    4.981781   42.557663   83.232498
H   91.724373   41.147102   26.669760
H   58.267052   96.379944   29.665611
H   87.608261   40.224190   76.198738
H    4.294007   47.732868   51.463203
H   84.177269   16.691967   67.710007
H   48.652523   73.586578   54.649963
H   92.949539   18.260303   10.601146
H   61.645794   98.845039   55.441727
H   46.683861   80.308487   62.163151
H   18.983765   44.700165   39.101746
H   58.013481   32.494705   71.592392
H   26.006845    1.003968   51.263596
H    5.880337   64.253273   12.571236
H   34.068714   15.504379   85.350533
