100
TIME:    3.256, STEP:  3256
H   97.132721   23.429436   96.165054
H   10.698404   81.280411   83.387527
H   35.722450    8.153995   85.119637
H   82.023117   98.502007   61.692242
H   66.007355   33.740261   77.421402
H   77.531502   97.680626    1.198057
H   82.322929   81.198601   45.076378
H   63.971115   70.286514    9.238243
H   73.589241   73.242233   95.132912
H   85.863518   63.134697   35.191711
H   97.389847   97.254959   26.115408
H   31.568314   86.897263   61.163322
H   36.148354   64.714844    1.509525
H   93.863243   95.039955    5.022244
H   20.106018   79.188400   94.258888
H   70.607635   26.947540   62.764992
H   62.278999   97.330597   69.794876
H   70.721886   36.361488   86.663757
H   95.981071   14.945521   34.900761
H    4.798553   36.670818   38.016228
H   71.061066   32.072350   68.867126
H   74.536240   48.406372   41.999786
H   42.271736   68.141380   39.193161
H   16.523865   75.732300   65.255898
H   13.131248   27.942192   60.586098
H   31.729132   30.592039   83.986092
H   81.310684    7.128128   64.578041
H   57.809238    8.418762   74.399101
H   81.969131   44.501541    3.260068
H   25.842396   10.253997   42.230896
H   44.199749   14.027646   51.774590
H   71.343056   62.548767   97.839851
H   99.705048   30.257362   91.123146
H   15.674750   75.329811   34.580093
H   99.834915   12.791606   22.996330
H   55.650875   40.260906    9.447526
H   92.091896   85.293442   65.025383
H   29.415314   99.360603   52.207462
H    7.634586   10.475084   28.781332
H   56.513927    7.367040   94.209389
H   12.727438   67.902725   19.055647
H   38.990440   57.991013   55.770645
H   39.286671   83.025208   36.658031
H   71.441559   67.342377   99.088707
H   74.221046    3.427633   34.736019
H   36.080746   25.020008   96.389381
H   67.172165    1.909441   56.717445
H   56.413303   28.906847   70.040764
H   60.203247   62.786484   14.590335
H   94.167564   80.299629   55.934505
H   43.296207   55.297852   87.747574
H   63.368122   61.607651   60.312885
H   76.417763   40.888123   13.765465
H    1.294704   54.084511   75.495026
H   81.545486   43.931862   28.041147
H   97.640213    9.109732   81.784882
H    2.669012   95.595970   65.660133
H   83.607903   69.398560   29.689430
H   47.069946   76.342484   61.519459
H   44.155815   78.055359   71.002205
H   65.091682   27.153576   60.531300
H   83.352806   97.635696   48.031853
H   95.109917   85.099297   10.196793
H   66.624382   59.506332   38.740955
H   61.560650    0.792112   98.785789
H    1.324078   80.407478   38.703934
H   26.333843   60.928532   24.262369
H   55.451607    3.750766   21.858229
H   19.180046   15.830925   56.023083
H   96.352844   11.909481   94.876923
H   18.639515   73.861427   23.090813
H    5.495554   43.464905   95.010590
H   94.693741   57.249691   78.264641
H   58.537586   43.333580    9.694786
H   19.156847   33.280025   48.225132
H    2.629073   16.251318   76.841400
H   62.579632   44.338493   48.633518
H   84.953125   37.818653   94.255844
H   17.650602   43.954830   54.010468
H   39.845039   31.624611   40.413834
H   74.595566   62.966473   74.592392
H   85.625656   65.491714   14.512728
H   23.805891   61.605469   40.017735
H   74.156967   90.781708   66.030579
H   93.788620   45.220455   32.119652
H   76.356018   28.651920   67.889709
H   84.615593   66.615196   78.801910
H    8.368349   44.611053   61.881203
H   23.254848   12.883612    1.561429
H   78.464783   75.315750   40.611496
H   57.271545   49.245579    2.222533
H   19.203501   40.375099   95.566582
H   94.170624   25.212934   70.795921
H   61.933498   10.732693   46.353554
H    0.294648   58.077862   90.906975
H   62.853836   67.155403   99.272087
H    4.156709   54.535702   49.934196
H   18.818579   43.960571    3.937588
H   53.605064   50.885632   72.313347
H   41.453129   95.080452   84.078995
