200
TIME:    0.283, STEP:   283
H   10.792473   62.332287   16.074850
H   28.347546   33.505917   91.642807
H   17.236418   71.020256   47.466179
H   19.291975   77.476357   43.375256
H   14.753601   84.819077   53.040264
H   88.219727   51.647907   64.276543
H    3.982215   55.273621   50.483662
H    3.852233   90.743225   23.546013
H   89.174759   86.861580   46.670433
H    9.347515   74.296562   94.376366
H   13.692477   95.512764   94.320511
H   30.955612   43.170574   14.791159
H   12.229556   88.434959   59.529320
H    2.371162   53.388355   44.337856
H   17.545799   72.275604   42.872791
H   28.047020   24.194656   53.395405
H   86.230255    9.732401   13.344332
H   35.541080   85.234169   42.754829
H   66.456108   28.145170   43.116833
H   90.193054   79.114159   35.803829
H   58.601120   78.904778   23.870449
H   89.071739   50.457970   68.917641
H   93.717560   62.228813   48.104446
H    9.519019   88.451218   91.451248
H    5.115462   14.433398   43.875996
H   18.625498   64.244484    5.536360
H   99.728386   59.659565   50.810760
H   95.497101   71.903275    0.844415
H   12.879670   55.222725   38.086575
H   91.106300   21.916260   97.138458
H   13.305352   53.245731   16.247385
H   31.144112   64.514145   94.661789
H   26.084320    9.910802   73.704384
H   95.003410   63.624832   39.041893
H   45.924915   88.024216   33.892010
H   31.656651   48.941532   79.969559
H   87.498642   73.500908   86.277748
H   30.787951   45.867615   13.234079
H   51.478813   44.860847   45.387447
H   89.670372   39.511662   62.016693
H   80.517105    3.215132    2.951544
H   15.479601   42.205204   38.556118
H   75.927628   86.794128   51.924969
H   37.185471   65.322350   20.286217
H   30.246159   77.607079   45.915657
H   40.454678   12.719430   43.155533
H   80.784470   24.105518   97.121864
H   89.068970   65.549950   46.101822
H   88.743324   27.120373   61.197334
H   60.578613   17.995554    3.893209
H   77.185333   69.951859   26.164604
H   19.494352   36.438091   64.466209
H   53.336308   93.191666    8.490775
H   21.766623   83.091125   82.339935
H   75.378799   75.428627   89.382690
H    4.754425   71.290741   80.056274
H    5.307767   16.908180   49.193333
H   67.878464   59.579006    4.527343
H   27.273819   75.308121    8.166489
H   42.108765   95.747719   66.199333
H   50.280254   14.537464   40.980183
H   90.709282   16.526747   49.395721
H   72.631950   26.097244   83.434219
H   25.167887   65.213684    4.627563
H   72.039604   76.720108   19.687943
H   37.052959   18.231709   33.636215
H   84.568947   22.254972   86.723518
H   97.100624   91.547691   88.122879
H   18.052002    6.434331   61.435547
H   44.989441   42.379448   50.980297
H   58.446301   77.335854   74.431534
H   30.931993   22.691570   44.463829
H   78.858536   26.406490   98.055885
H    9.266237    8.019540   61.824356
H   79.668625    1.567650   65.590858
H   54.400635   17.558487   62.596485
H   95.245834   31.550985   71.537346
H   24.962572    6.752945   46.497154
H   11.857475   31.609238   33.986088
H   67.628166   90.427132   92.222382
H   45.193119   29.375305    0.495353
H   28.527174   67.817001   86.527916
H   10.831949   14.137975   89.021591
H   23.271839   63.265678   95.253021
H   37.376980   99.778549   56.563602
H   25.878672   84.269821   26.887699
H   37.782429    2.873712    1.869902
H   74.973900   16.943966   13.064055
H   67.003136   72.157616   77.322815
H   23.228756   87.974533   54.392437
H   39.440273   35.264000   80.563225
H   83.755905   88.912735   99.306107
H   49.302383   16.377138   94.505165
H   58.099670   92.888794   70.285370
H   26.214483   56.344543   69.730682
H   67.491341   28.670689   27.039906
H   79.888893   12.791895    0.181142
H    5.712597   29.106894   49.000698
H   36.043556   69.347282   53.033634
H   67.952087   98.626160   27.260904
H   11.784725   81.615295   70.964607
H   92.171288   77.307121   65.627411
H   24.070745   35.598526   31.103773
H   23.942131   68.018875   91.869942
H   25.281738   26.907642   26.481644
H   89.125427   24.667614   41.877605
H   67.695251   30.630705   56.059113
H   64.497932   35.925358   17.078896
H   73.889343   39.546871    1.211859
H    5.748046   27.460852    5.747717
H   47.760288   95.693115    0.826104
H   87.720558   64.426697   91.000961
H   56.347202   80.773643   93.000061
H   63.078514   18.470320   73.845123
H   62.415306   83.759140   25.264959
H   12.283638    4.539351   80.874229
H   30.807003    9.048193   84.681381
H   40.552952   29.112984   33.118980
H   20.495361   59.328014   81.414459
H   71.917404   47.533077   50.946827
H   41.003365   22.045177   86.110794
H   16.433731   26.461391   49.453014
H   33.273079   20.009029   25.304745
H    3.443770   65.771347   15.982198
H   75.629707    7.887444   91.390976
H   49.297710   63.529030   24.701138
H   94.317802   49.390701   69.394104
H   74.488113   87.907219   35.365742
H   92.996887   50.927170   83.910339
H   69.829384   23.945536   67.234177
H   50.344742   83.650360    5.054615
H   80.049515   86.477859   10.341031
H   92.297340   84.686798   97.695015
H   98.812096   14.105456   50.236423
H    6.550318    0.592624   54.440956
H   61.212807    1.571664   83.048111
H   68.963905   86.674095   57.479279
H   91.585121   62.878349   82.518951
H   47.437180   44.934975   71.539917
H   43.471237    7.027597   94.262680
H   52.746464   61.804142   16.298935
H   55.258759   42.317341   47.249290
H   53.623203   57.552444   97.933876
H   55.742729   24.971113   78.836983
H   42.323139   68.340981   50.474628
H   47.515659   62.716663   27.786747
H   45.748253   96.589485   46.974007
H   41.478302   71.818069   68.578270
H   66.334808   62.997021   97.516991
H   10.832673   89.144257   88.387779
H   74.704567   62.040218   51.019577
H   35.597462    5.919916   46.804806
H   78.173332   30.230747    1.955021
H   11.046592    2.129746   74.889923
H   15.317650   55.014633   61.531216
H   64.778595   43.635525   55.383877
H   59.761364   62.173042   81.264938
H   46.657413   35.969978   10.731535
H   10.413789    1.572309    1.010319
H   63.197586   55.189331   79.891235
H   54.378330   82.662445   82.272583
H   41.585201   22.833464   35.171459
H   67.070290   32.695225   37.214172
H   12.853036   21.442871   69.359009
H   58.542465   23.547426   10.247050
H   12.654546   63.071106   62.066765
H   74.159393   96.871468   52.677544
H   23.669777   32.888973   49.790821
H   94.657242   28.030373   36.755398
H   28.435268   10.135218   89.919128
H   78.543518    6.145189   35.972466
H   44.677467   63.850079   57.590160
H   38.503765   75.606583   89.214127
H   70.695488   73.513504   75.239975
H   69.439301   94.713074   97.209564
H    2.234978   47.893120   23.327999
H   34.976006   54.264408   88.706741
H    2.111099    9.241867   65.430038
H   74.501900   20.379953   68.631920
H   84.255051   54.916359   86.991592
H   80.632759   86.730331   40.719524
H   20.094986   30.158535   71.185951
H   63.655579   90.121140    6.921089
H   52.417213   25.299976   78.772209
H   86.079033   86.469337   78.219681
H    0.160633   36.586609   84.169411
H   32.849274    3.788005    0.217869
H   88.355232   69.045967   27.031130
H    5.373129   61.365158   67.034851
H   50.395512   58.039402   66.246292
H   49.874443   29.601696   78.994392
H   47.300411   86.097763   24.076685
H    5.055609   18.547010   58.791225
H   34.352299   65.247231   34.179863
H   83.418976   52.334686   21.675627
H   75.433121   10.488959   28.977251
H    9.747106   86.731911    4.918134
H   27.659813   96.551575   45.754025
H   11.339895   11.732212   76.093956
H    7.559252   33.535973   97.151390
