100
TIME:    1.895, STEP:  1895
H   89.171539   48.240128   97.411087
H   48.557396    7.488275   97.536339
H   12.328184   10.238151    1.090138
H   81.794678   54.576439   36.291668
H   78.197708   24.650120   14.323727
H   98.630989   99.155098   66.414787
H   53.652378   89.296806   38.644325
H   70.943031   52.542789   34.201477
H    7.045280    4.096809   80.803963
H   23.054373   43.592751   81.896355
H   23.986740   42.491825   57.212772
H   83.513596   18.676973   58.040733
H   22.721786   47.057320   36.781441
H   61.252235   99.234932    1.449428
H    3.549689    0.758522   59.683044
H   25.331284   45.985970   75.740005
H   71.712296    7.316383   45.889320
H   41.639809    2.546669   33.850388
H   74.777748   57.852791   63.196636
H   41.463066   65.568954   45.353035
H   51.824646   67.564941    5.811161
H   44.052860   46.601120   57.900063
H   60.443047   79.210304   78.131683
H   42.975502   59.409275   66.336166
H   61.807732   35.883240   50.543694
H   37.969906   71.142029   11.554250
H   98.670464   63.706501   37.570507
H   72.646652   44.891903   29.410486
H   52.375854   21.021193   67.594658
H   73.656212   43.938858   34.035183
H   90.645668   91.979294   59.458721
H   85.408722    0.157743   23.834404
H    3.838274   29.834595   68.513519
H   58.169624    0.057418   91.918365
H   33.668633   15.672851   40.120247
H   37.317913   33.345890   14.125340
H   61.553299   35.138039   57.783878
H   85.667305   24.270222   56.165272
H   65.530167   40.055336   60.501167
H   84.705406   34.779530   87.128983
H    5.739784   21.205584   86.989914
H   61.309387   96.905296   91.830475
H   27.563581   74.863693   38.351212
H   58.350548   44.531113   66.016159
H   92.278419   57.121861   18.270426
H   53.639423   99.061012   90.865303
H   56.089527   27.965258   43.815865
H   56.340618   14.894171   85.829811
H   20.423651   75.504967   68.883682
H   65.633415   59.592510   51.125027
H   43.400043   86.693245   73.397430
H   97.227058   87.897293   49.659542
H   48.189308   32.996582   92.810875
H   32.808949   76.289299   15.437681
H   89.898911   24.630453   16.486464
H   95.937302   10.540394   28.116531
H   16.387224   34.867760   36.217796
H   84.951508   97.927887   64.744827
H   39.731102   18.836882   66.004318
H   33.968151   73.444565    9.711688
H   79.238571   90.445992   66.645531
H   31.653938   10.305794    9.610713
H    2.768802   77.928337    3.553711
H   73.166504   52.102821   75.692924
H    7.537086    9.493112   72.039566
H   84.932503   48.066933   58.232540
H   35.529617   13.878530   58.553112
H   49.465218   25.914635   56.794559
H   51.349953   13.623703   41.381866
H   68.773987   43.456429   97.742798
H   61.857689   66.464989   39.419895
H   17.715979   88.633591   95.364433
H   83.433823   24.572163   13.157406
H   88.485802   29.459841   90.583076
H   53.536102   31.340059   45.052105
H   70.459969   29.023958   68.418999
H   39.008644   62.302078   24.562716
H   21.010876   26.810865   19.093098
H   52.386360   47.951023   38.820717
H    6.590985    5.747728   57.665230
H   47.965748   48.886303   93.248787
H   83.507172   56.603348   28.319120
H   37.699451   38.886139   10.389215
H   80.529366   74.319191   90.342590
H   60.058792   30.350800   64.053452
H    7.675204   78.662224   73.377769
H   93.717476   65.570984   13.904287
H   86.460922   53.576248   76.042885
H   95.008247   88.661964   12.695988
H   98.794479   31.309959   91.959862
H    1.573735   75.755219   73.480667
H   18.498095   38.027538   69.628334
H    6.871235   84.412521   65.517502
H   30.386700   28.177996   54.587852
H   23.828690   79.987274   59.631554
H   50.440826   20.899687   69.569687
H   12.186393   76.430717   28.206253
H   13.822934   32.372467   25.715763
H   18.439465   45.018894   86.315659
H   56.927261   30.027901   15.170073
