100
TIME:    7.948, STEP:  7948
H   79.831535   93.151817   91.869400
H   80.972488   35.554699   79.252640
H   16.389772   45.714554   30.042236
H   82.810654    5.192127    4.505013
H   23.978121    9.824498   50.201874
H    4.763997   92.597435   65.864021
H   36.415592   98.023773   11.997120
H   95.189163   76.204430   78.435173
H   58.250862   22.125324   99.788162
H   57.671730   30.506502   18.915787
H   60.951431   86.047745   74.157318
H   52.489777   22.082531   27.181358
H   36.932228   80.903732   35.256718
H   61.543694   80.577919   62.087597
H   77.142403   60.078293   68.680695
H   81.951019   16.567993   73.287384
H   84.976082    7.670041   96.926147
H   71.029953    8.089361   24.009426
H   69.054810   11.780423   82.093140
H   78.382614   37.028774   57.469398
H   92.631142   64.969727   41.520809
H   24.362841   54.635071   42.432648
H   79.624947   29.982599    4.947890
H   80.574493   31.909395   16.785923
H   45.317696   55.844963   95.237709
H   10.131893   91.796432   42.940407
H   76.714584   12.087289   57.671566
H   61.911560   27.425467   29.490393
H   83.992241   70.196762   81.466209
H    5.755328   94.126144   15.231853
H   28.858706   34.768394   80.558617
H   67.598869   32.916637   63.477898
H   30.202997   86.969185   13.815564
H   13.923465   45.335884   36.913910
H   83.151833   57.894890    8.613892
H   63.543720    7.950177   94.438850
H   42.115536   13.462057   34.736538
H   35.487083   13.498320   83.309547
H    9.583226    8.244509   74.092186
H   14.581036   68.118988   63.367859
H   92.062485   28.897879   29.595915
H   30.399895   72.771240   85.719566
H   79.687714   11.165535   75.565163
H   71.836014   46.049217   57.847919
H   67.224709   18.305943   36.242218
H   75.530052   14.510222   15.450903
H    3.830747   57.077583    1.757132
H   56.672726   77.231812   60.354748
H   97.360359   74.196175   27.424488
H   92.610107   51.707081   27.807869
H   42.955845    2.315035   37.210510
H   91.400986   26.223066   52.300201
H   73.736671   68.093933   41.264198
H   92.636169   77.526840   82.540054
H    7.963006   55.130302   67.949615
H    3.494983    4.173199   22.058121
H    0.121637   60.210274   11.908463
H   34.230881   26.297049    8.832168
H   17.116013   74.600273    1.317818
H   34.532669   38.698185   37.550560
H   61.066631    8.953369   94.707924
H   16.827888   53.963211   35.732353
H   13.649852   64.925812   88.452240
H   88.814751   85.059174   11.349452
H   47.793442   26.050428   35.731979
H   13.090164   47.154655   16.132145
H   49.885803   23.145916   50.791973
H   31.343163   72.091850   46.162964
H   53.030609   78.693748   61.749481
H   91.444496   47.850857   84.986023
H   69.647545   54.620483   66.810921
H   18.769196   87.694725   38.631351
H   88.766312   25.171976   57.965420
H   55.239361   46.390308   30.909800
H   45.333862   40.018208    3.924457
H   13.550988   16.964649   61.128571
H   88.630577   37.881187   31.699755
H    5.391271   31.022518   53.379093
H   42.647995   30.172939    6.355982
H    9.748178   76.054070   36.193825
H   66.410347   11.508065   55.024017
H   37.708038   96.014542   22.074852
H   20.602930   40.036777   86.870316
H   96.959419   92.286499   37.490032
H   65.328690   51.724728   77.283592
H   68.371017    0.996321   93.716324
H   97.983727   25.468132    2.534581
H   83.854729   69.068176   13.169571
H   20.628040   51.640068   63.186409
H   63.629848   82.273941    8.339781
H   49.287617    2.601433    1.309054
H   66.370415   93.245285   84.967857
H   94.935730   65.999992   33.635620
H   15.409723   95.368858   62.720211
H   19.175491   37.796455   98.723907
H   50.393814   81.874451   56.924416
H   31.727087   23.798450   80.091789
H   22.935839   79.725975   19.325144
H   30.088493   71.123589   79.309303
H   32.892048   74.673508   32.084171
