100
TIME:    6.312, STEP:  6312
H   90.467850   43.179558   93.367203
H   26.152794   46.902752   76.098061
H   88.262878   28.014103   49.250919
H   82.536057   72.595734   94.180176
H   38.635040   78.692062   94.561798
H   30.137890   94.369835    3.844424
H   22.158733   87.553932   84.059700
H   23.775543   34.670010   28.646862
H   98.466866   79.420273    2.768262
H    2.356493    7.014834   54.858067
H   13.128159   20.219320   31.746037
H   14.928444   40.078434   43.633629
H   41.285019   79.891106   97.829521
H   42.547981   85.620522   37.586376
H   57.271553    6.213867   47.357906
H   47.732422   59.658424    9.089652
H   16.533760   99.461494   47.994606
H   36.046284   87.697266   80.718300
H   43.577206   43.150337   95.903748
H   22.461586   71.768105   46.082909
H   89.713699   27.837742   85.924339
H   67.517929   52.463257   81.753189
H    1.468044   43.287132   51.757095
H   32.581852   12.338106   38.289364
H    3.831613   85.586594   83.155434
H   17.772665   40.061325   96.865486
H   17.787708   80.095413   25.206694
H   99.954147   51.062523   75.415390
H   48.419426   21.765976   58.800323
H   43.022694   34.617973   85.174759
H   64.474617   88.064842    9.993584
H   64.300781   78.116730   14.930565
H   14.965559    6.666748   66.431763
H   44.799232   95.265671    5.837367
H   23.868042   81.763100    9.077329
H   21.328955   79.811501   99.581306
H   85.201790   73.376099    5.826272
H    3.107205   43.441631   67.860725
H   78.641479   43.888054   32.632210
H   68.672760   21.274750   34.649235
H    3.871616   72.761482   91.053688
H   68.272980   66.355652    2.199201
H   65.608368    1.351622   57.395554
H   76.300491   18.589499   97.890099
H    9.136883   82.852402   96.244736
H   96.649071   83.308578    8.804403
H   91.047165   68.105972   86.054039
H   56.576511   60.381531   59.128712
H   49.534302    9.690735   92.685318
H   58.262585   26.804808   42.196983
H   43.068180   60.260712   19.965172
H   11.884977   78.033371   59.692665
H   39.802540   58.607849   36.277508
H   30.520515    4.214185   10.347835
H   38.224510   11.758105   54.036076
H    1.457348    5.894112   77.751419
H   96.406029    7.416448   56.311195
H   56.050934   80.796852   50.973251
H   88.091034    5.466582   26.910423
H   42.491425   12.948819   84.082298
H   57.866566   85.034317   22.263111
H   74.892708   69.190872    9.754910
H    2.581609   76.563393    0.637665
H   76.474106   76.147247   55.771458
H   82.857391   56.716084   83.377861
H   13.590736   28.484734   19.398542
H   81.144699   66.582123   71.805435
H   44.352821   78.527077   67.952698
H   71.492592   96.246277   64.356567
H   58.262619   65.619072   88.441864
H   21.598167   65.932632   86.432137
H   53.513195   42.042084   18.756512
H   95.436508    6.090210   99.905823
H   91.258476   49.932079   28.115446
H   66.496208   37.640011   79.890274
H   74.879189   12.112339   71.210938
H   40.047451   79.481346    2.685782
H   28.529568   37.994057   63.029564
H   64.194359   34.978390   88.104454
H   89.978989   65.175148   77.136772
H   34.388542   94.582199   57.242344
H   14.944799   85.405106   58.941692
H   17.122543   12.677295   31.066406
H   84.404869   52.290794   86.913506
H   44.987541   54.066940   35.874695
H    6.017542   40.904564   80.107574
H   88.718925   44.418968   24.523993
H   57.543327   99.980713   30.132187
H   86.674423   42.729759   76.566780
H    8.272689   49.584408   49.854736
H   82.335686   14.262100   66.759689
H   45.322979   70.202103   53.792686
H   90.064941   16.910015    7.121226
H   57.296925   96.114937   52.407440
H   47.461830   84.339096   61.129063
H   15.266952   46.477203   41.426041
H   61.585411   29.912371   74.180359
H   26.093706   98.777267   52.166878
H    8.024001   64.058952   16.340576
H   31.273722   16.659145   89.685326
