100
TIME:    2.247, STEP:  2247
H   65.366852   15.959855   97.088821
H   38.765892   26.573122   19.739981
H   18.378721   35.561707   96.959251
H   81.853760   40.074486   16.997059
H   75.044876   52.864475    4.779964
H   93.173958   98.773750    1.273252
H   35.205357   13.065107   66.171181
H   43.276527   82.995880    1.881214
H   98.392387   70.253479   58.647549
H   13.436087   48.646950   95.678581
H   91.244568   56.655399   23.307398
H   70.080490   36.321014   32.984581
H    0.331400   25.760933    1.795886
H   43.823036   98.149971   28.237743
H    7.831476   69.316162   42.761414
H   11.177315   15.198415   46.521255
H   43.412003   30.594704   77.937119
H   49.162025   85.428917   21.646122
H   80.261635   72.619049   81.742905
H   31.980400   58.094517   69.318855
H   30.936462   32.521511   96.256821
H   77.802429   47.066910   27.925446
H   55.743340   76.347511   68.060883
H   10.270912   63.630955   40.192604
H   49.217888    7.966980   53.140617
H   36.355892   60.653141   78.560265
H   68.318413   49.072956   44.555614
H   42.946411   61.322079   41.045811
H   60.029663   52.957253   50.955009
H   87.153770   35.226944   62.018581
H    4.492882   23.546190   31.606895
H    7.634165   90.430733   91.248039
H   28.632915    4.081491    0.224457
H   73.042183   67.798630   77.088776
H   24.918034   89.064056   61.553596
H   67.922409   60.998966   12.915502
H   95.315796   22.246397   85.520203
H   71.117012   17.827595   81.005730
H   50.227577   32.456970   26.560968
H   51.550655    1.826126   14.823065
H   81.683296   33.283688   95.282883
H   29.673645   12.703471    8.367609
H   30.595564   76.974533   63.775284
H   35.872520   50.431259    0.434112
H   61.743954   43.234898   48.393166
H   49.098164    5.774860   92.294014
H   59.284756   47.037567   47.025589
H   56.359417   18.518316    7.609510
H   30.711981   46.352299   54.841888
H   73.013298   64.949699   26.506618
H   43.373188   52.710335   77.108856
H   14.332872   55.234951   26.550411
H   55.491310   35.037598   72.368492
H   24.658314   70.547600   30.969542
H   61.877708   55.489750   19.472792
H   96.377731   10.170460   16.133621
H   38.701435   24.711021   69.695824
H   58.740570   64.686188   55.678421
H   67.491936   33.710629   38.979858
H   10.740704    0.498809   99.700569
H    1.442720   74.074898   39.201672
H   19.162117    7.028755   93.684036
H   26.645020   53.924919   79.405197
H   97.336426   54.017616   66.137749
H   21.508656   81.380219    4.819547
H   63.308479   30.567909   79.045525
H    7.287230   26.047968   75.547256
H   25.150276   46.045898   73.622192
H   68.893883   88.331245   19.303986
H   75.906799   61.162239   97.001587
H   50.680443   42.514091   35.197025
H   88.691772   76.951462   21.136118
H   60.483139    7.161762    4.131283
H   80.740685    7.184319   69.662666
H   70.507103   31.840914   71.735703
H   78.779793   51.585060   44.734661
H   70.968750   31.791590   30.789156
H   37.548473    3.794326   38.533772
H   69.262894   46.918583   42.748207
H   89.328163   86.577866   27.340034
H   54.854176   52.527905   14.286875
H    9.917597   58.902176   98.884254
H   59.970692   44.762115   43.915470
H    4.742710    4.440279   58.191223
H   42.919632    8.332235   29.930893
H   99.573364   91.590446   97.821617
H   17.226782   39.977722   30.689039
H   92.127426   25.394119   72.379799
H    2.313257   69.062843    9.816410
H   67.674362   16.826805    4.543679
H   15.979156   94.763519   80.914261
H   44.544323   64.499321   76.336830
H   29.455341   94.961349   92.748947
H   64.409859   49.530537   78.321648
H   17.741898   48.457626   67.720421
H   79.514557    7.000204   51.388535
H   84.246262   96.631401    7.962335
H   15.115354   35.369537   20.082829
H    1.671679   46.536228   56.829010
H   78.787613   20.987007   81.267365
