100
TIME:    8.574, STEP:  8574
H   37.497063   35.744286   91.296280
H   63.683365   69.477859   18.722733
H   27.150103   90.752243   22.694359
H   82.915726   79.401237   70.193794
H   18.368708   60.001163   33.227966
H   95.057373   91.919243   27.857605
H    3.607545   40.295898   60.951130
H   45.986801   30.361895   20.957199
H   42.862587   61.937531   60.385715
H   40.573647   39.494938   43.427498
H    2.722434   11.235995   13.858786
H   28.595444   53.460857   82.622627
H   97.014023   43.013588   73.046066
H   30.547560   78.648415    9.724575
H   84.745796    4.160873   38.576820
H   56.781494   61.815575   21.324001
H   34.637032   49.073429   53.913399
H   84.412308   77.628197    2.310286
H   78.807404   38.043652   15.074130
H   61.514484   23.735678    0.090430
H   55.483406    2.647807   24.531523
H   84.378075   55.466095   89.123001
H   71.266945   24.893770   87.037552
H   22.409330   39.398163   70.295151
H   22.928772    6.198433   99.860878
H    7.179890   73.341965   84.030762
H   22.732977   86.066116   70.091599
H    9.092886   56.645039   50.184517
H   97.603844   26.992151   51.874107
H   29.757629   78.632797   64.996979
H   53.497791   90.903023   31.031487
H    7.124939   15.622711    5.525928
H   74.298599   41.167336   70.210587
H   40.374496   87.966827   10.542776
H   67.572517   10.497856   46.702267
H   17.960688   56.984207   92.471138
H    2.157572   90.535896   84.063072
H    9.613714    2.041836   27.484695
H   83.160942   94.605675   13.428154
H   55.617821    9.513801   12.618653
H   49.279068   50.375557   44.344204
H   77.643829   75.226105   17.679123
H   85.075043   14.920666   20.782574
H   31.865208   56.560501   19.055210
H   12.925156   93.610435   89.811211
H   67.449059   26.447838   17.994123
H    8.724687   91.120918    7.768833
H   56.710934   83.679413   99.088112
H   15.658157   22.351746    2.452537
H    5.752089   61.235203   84.038750
H   42.912861   41.879433   43.810944
H   21.825354   68.136200   11.206420
H   86.717842   71.723694    4.907499
H   78.136230   67.315750   10.163577
H   58.120369    9.988866   73.270081
H    4.274666    3.514708    0.747596
H   39.805878   42.147438   71.446175
H   87.618347   67.178719   92.707664
H   66.489586    1.049878   53.260559
H   93.223793   86.814133   19.745628
H    0.554628   79.839966   45.898968
H   94.609886   48.136490    7.407604
H   56.150455   22.208712   45.525543
H   31.800636   88.469238   94.353775
H   72.641312   76.053436   94.027847
H   74.634590   16.034233   53.146152
H   99.659927   44.786953   81.014511
H   88.100815    7.893180   76.089386
H   84.229126   33.713371   22.485977
H    4.158312   79.293594   83.658295
H   49.766407   12.025012   59.303047
H   67.218262   66.909569   84.516525
H   47.950607   94.206474   41.913280
H   41.460598    6.771877   93.716164
H   75.489532   40.939976   51.388050
H   28.351618   57.086937   19.008280
H   45.485184   83.698975   42.803894
H   34.798893   90.092186   87.955872
H   72.666542   28.334179   13.342077
H   79.048546   41.953423   82.263512
H   78.665565   17.984324   92.439209
H   84.682114    0.074216   69.702309
H   60.200066   50.505772   46.488003
H   40.026726   45.855202   80.314629
H   34.848251   12.566191   16.600330
H   53.963268   23.990379   37.187897
H   39.792927   79.952507   32.384682
H   93.922539   18.973804    6.678864
H   33.620853   16.785856   58.066536
H    8.281631   56.520355   30.717325
H   74.906090   36.401653   14.529319
H   12.688074   40.325806   96.898308
H   35.063328   84.779228   82.045166
H   75.908920   33.347523    4.930338
H    8.350685   81.723068   13.108130
H    2.098823   57.153870   24.590889
H   82.038719   59.722984   44.090294
H   21.727510   10.702168    6.757097
H    0.267626   73.826805   26.874981
H   71.774429   58.608646   71.780136
