100
TIME:    8.084, STEP:  8084
H   70.634270   80.679893   91.744888
H   77.216385   42.924755   87.827347
H   18.727480   55.499100   28.445892
H   82.833481   99.588615   97.050484
H   22.759462   20.725498   46.514252
H    2.654820   92.450096   79.332039
H   29.288136    7.207294   22.632496
H   84.499832   87.970787   65.948723
H   54.907722    9.049138   91.227982
H   53.957130   32.459263   24.241257
H   48.301041   91.520035   61.056847
H   47.298676   28.899548   17.501091
H   28.259987   72.671432   21.741613
H   54.809685   80.158730   72.436790
H   78.794258   47.930099   62.139977
H   76.482880    4.672726   61.998322
H   74.039803   16.665211    9.306767
H   73.937302    1.471697   19.295101
H   71.173584   17.486172   89.258789
H   74.717819   34.141140   66.728920
H   84.560707   51.430187   37.830074
H   37.401295   54.815613   30.850983
H   77.809151   28.877039    1.056640
H   67.938629   33.536346    6.685206
H   40.453438   45.059135   96.242104
H    9.490658   87.787155   30.141716
H   64.987656    6.433715   60.370358
H   50.436768   33.773487   33.986015
H   86.949394   82.535873   75.037254
H   10.970034   90.760178   26.043102
H   34.211369   46.963280   69.798729
H   76.186028   29.159496   50.887688
H   39.783039   77.018623   26.067518
H   19.670105   32.872261   31.184370
H   79.767189   47.597771   16.888502
H   75.366104   18.602674   94.011360
H   55.159176    8.481070   45.452847
H   29.866219   11.009382   92.907326
H    3.842366    5.281649   60.912621
H    1.771385   55.386963   74.067627
H   82.767685   33.563957   32.800014
H   18.938591   73.304565   92.663170
H   80.858124   11.981346   85.389137
H   63.151905   48.332275   71.145294
H   55.427979   12.940376   47.879913
H   73.774437   17.103699   16.003424
H    4.893896   64.473579    3.063273
H   56.681026   78.632568   68.769661
H    1.336122   62.932114   21.999409
H   95.465576   53.777088   18.298805
H   42.946507   89.185188   38.644470
H   98.010483   13.603285   43.372711
H   76.556862   68.882507   33.366005
H   89.486023   75.308456   88.541519
H   97.134346   67.048920   69.105499
H    3.664371    4.030140   17.428360
H    8.743266   56.286079   24.843239
H   24.104334   13.453146    5.328979
H   27.842178   80.346489   90.877441
H   25.558487   49.151981   33.682396
H   69.645493    2.628952   84.103676
H   12.000984   52.697342   29.578568
H   22.882915   55.645538   79.126312
H   98.153130   85.800018    7.656889
H   53.192062   15.188337   48.396896
H    4.735947   40.393669   24.173527
H   38.974426   27.847790   57.357891
H   21.948753   79.869682   52.664551
H   59.809235   68.921654   53.219391
H   94.206581   54.681362   84.697571
H   65.329063   45.366821   65.179817
H    7.570081   83.179100   48.599552
H   79.899002   18.444712   54.478054
H   52.245892   37.783436   22.829508
H   51.885254   40.218464   14.235844
H   16.766306   25.680988   51.977997
H    0.982168   26.109642   34.112106
H   11.780072   22.130306   60.890263
H   49.169296   29.773464    7.873728
H    3.078846   68.645622   24.477272
H   69.072823   12.915048   63.152557
H   47.912811   96.896500   10.697075
H   29.205133   42.311192   99.821609
H    6.316121    3.924286   25.068951
H   58.706741   43.217464   64.099876
H   65.241623    5.991836    3.160604
H    7.066928   15.579815    9.019661
H   86.041985   58.185295   11.759476
H   23.450825   44.067680   62.074104
H   51.605129   76.679214   13.201185
H   54.853291    9.944758    4.181246
H   76.433037    3.473807   87.559776
H    3.653567   70.079826   44.152710
H   28.553492    3.619807   71.890495
H   16.823776   25.614021    1.848994
H   61.626846   76.503845   49.899879
H   20.932440   31.602741   72.270378
H   22.673326   86.455833   16.594706
H   23.609734   71.710869   67.918556
H   41.339130   71.183029   18.982426
