100
TIME:    2.544, STEP:  2544
H   45.281647   88.723625   96.816910
H   30.504311   42.676704   38.474689
H   23.483862   56.929428   93.474251
H   81.903610   27.838076    0.717050
H   72.384674   76.670334   96.727188
H   88.569588   98.451988   30.686441
H   19.639782   33.120773   89.396965
H   19.932915    8.690889   74.612892
H   91.091560   41.698227   39.951359
H    5.320658   52.911430    7.308613
H   63.618347   68.605911   94.698700
H   58.745255   51.208176   11.844534
H   81.438103    7.791847   72.275444
H   29.117149   97.234535   50.840397
H   11.444489   42.786652   28.484068
H   99.234955   89.221466   21.867468
H   19.533630   50.235786    4.978467
H   55.508896   70.985878   11.348602
H   84.888664   85.077133   97.391418
H   23.979401   51.788433   89.540016
H   13.312057    2.953432   88.194641
H    6.276108   47.461182    2.633186
H   51.777962   73.932030   59.563644
H   82.676331   67.192993   18.133774
H   38.595207   84.411133   55.331772
H   34.994068   51.804684   50.722130
H   42.706985   36.725903   50.449299
H   17.886850   75.185036   50.864086
H   66.487564   79.903694   36.915306
H   98.542336   27.876266   85.629570
H   16.177237   50.180294    8.105991
H   26.386757   82.223534   63.753242
H   49.554066   82.351387   26.980566
H   85.590904   40.580276   64.576309
H   17.534500   66.613220   79.639946
H   93.744949   84.329277   11.894700
H   23.802044   11.368799    8.922532
H   58.841156   12.391628    1.965404
H   37.690186   25.986528   97.780106
H   23.577406   74.023048   38.190769
H   61.385387   43.473576    2.280559
H    2.980940   26.033798   22.320383
H   33.153797   78.755554   85.229088
H   16.907587   55.409508   29.473139
H   35.982594   31.517773   73.807838
H   45.266476   11.439686   93.499489
H   61.607334   63.189117   49.878395
H   56.375278   21.576189   25.986198
H   39.392761   21.755627   42.993340
H   79.240074   69.467964    5.734806
H   43.350529   24.036940   80.240372
H   28.765715   27.674622    7.052096
H   61.652374   36.759705   55.119064
H   17.781216   65.703041   44.075592
H   38.232727   81.526031   21.992506
H   96.749344    9.858328    6.023041
H   57.529049   16.141273   97.942909
H   36.625092   36.638504   48.028641
H   90.917122   46.259350   16.178591
H   91.141434   23.328054   91.253181
H   20.178125   60.262402   16.046131
H    8.622143    4.263754   80.247070
H   46.791103   33.672035   59.029953
H   17.730871   55.633224   58.073902
H   33.297283   57.659855   32.478645
H   45.063210   15.803108   96.606483
H   83.458382   36.315556   89.886063
H    4.634230   63.031311   87.820511
H   83.694939   66.990715    0.676220
H   81.925110   76.099678   96.376190
H   41.249641   22.305983   31.632835
H   64.201599   67.094666   42.881683
H   41.118500   92.470573   96.516594
H   74.205742   88.390152   52.011070
H   84.827782   32.264217   94.249985
H   85.799644   70.620354   24.751011
H   97.933319    6.049490   36.041843
H   51.502071   84.375053   54.936840
H   83.506531   46.046200   46.063263
H   74.762764   70.403656    1.753409
H   60.666286   55.600506   32.037098
H   32.202866   60.841812   74.049660
H   78.760269   49.719971   72.203339
H   25.174335   29.854952   31.063507
H   28.458187   89.755341    1.140265
H   92.739319    2.498916   18.446468
H   37.062737   18.383408   44.851105
H   96.908539    1.615778   69.289070
H    8.477432   52.526085    7.386695
H   41.414814    4.606644   15.160220
H   28.133606   10.800904   87.186356
H   66.521317   86.832329   81.997124
H   48.511662    3.861236   15.725868
H   93.114662   67.546501   98.347939
H   12.606167   21.853340   74.545403
H    4.045562   95.272102   36.048187
H   60.671524   13.675305   90.881584
H   16.205725   37.898315   15.330120
H   87.523277   47.816479   31.951363
H   97.232285   13.358557   52.662262
