100
TIME:    7.892, STEP:  7892
H   83.618645   98.287315   91.920670
H   82.519119   32.519970   75.721878
H   15.427187   41.685623   30.699554
H   82.801254    7.499470    7.574615
H   24.479921    5.335883   51.720306
H    5.632482   92.658104   60.318085
H   39.350346   94.242645    7.617847
H   99.590652   71.359459   83.576653
H   59.627449   27.509693    3.313170
H   59.201271   29.702425   16.722946
H   66.160416   83.794449   79.551727
H   54.627289   19.275524   31.167351
H   40.503151   84.293503   40.821598
H   64.316521   80.750526   57.825817
H   76.462227   65.080490   71.374054
H   84.202606   21.465942   77.935822
H   89.479256    3.966191   91.828247
H   69.832809   10.814230   25.950619
H   68.182373    9.430997   79.142578
H   79.891647   38.217800   53.656654
H   95.954262   70.544434   43.040524
H   18.994066   54.560730   47.201569
H   80.372627   30.437830    6.550170
H   85.777496   31.239473   20.944950
H   47.320625   60.286186   94.824135
H   10.395931   93.447311   48.210487
H   81.543320   14.415246   56.560299
H   66.636711   24.811575   27.639349
H   82.774590   65.115952   84.113426
H    3.608100   95.512131   10.780163
H   26.654757   29.746876   84.989159
H   64.062981   34.463696   68.662102
H   26.258448   91.066475    8.770642
H   11.557269   50.467964   39.273163
H   84.545509   62.134880    5.206667
H   58.675678    3.563853   94.614876
H   36.744625   15.513052   30.323942
H   37.801476   14.523176   79.357521
H   11.947072    9.464510   79.519066
H   19.855602   73.361298   58.961670
H   95.889755   26.976553   28.276579
H   35.119255   72.551636   82.860435
H   79.205780   10.829613   71.519997
H   75.412064   45.109276   52.372761
H   72.082497   20.515232   31.450199
H   76.252953   13.442321   15.223394
H    3.392980   54.032173    1.219309
H   56.669308   76.655029   56.889782
H   95.723152   78.834358   29.658344
H   91.434326   50.854725   31.723366
H   42.959690    7.721621   36.620056
H   88.679428   31.419447   55.976227
H   72.575417   67.769226   44.516396
H   93.933289   78.440292   80.068863
H   12.421959   50.222527   67.473663
H    3.425236    4.232105   23.964493
H   96.571228   61.826118    6.582307
H   38.400803   31.585714   10.274657
H   12.699356   72.234184    5.616982
H   38.227921   34.393681   39.143333
H   57.534161   11.557541   99.074379
H   18.815437   54.484451   38.266350
H    9.848002   68.747101   92.292328
H   84.969536   84.754120   12.869914
H   45.570480   30.523054   30.516954
H   16.530136   49.938591   12.820886
H   54.378723   21.209850   48.088360
H   35.211449   68.889214   43.485840
H   50.239410   82.717552   65.261719
H   90.307167   45.038296   85.104797
H   71.425743   58.430664   67.482552
H   23.380676   89.554100   34.526798
H   92.417557   27.942026   59.401394
H   56.471966   49.934315   34.237122
H   42.636230   39.935749   99.678558
H   12.227059   13.375568   64.896553
H   83.544640   42.728294   30.706621
H    2.760556   34.684017   50.286259
H   39.962753   30.337429    5.731028
H   12.494409   79.104607   41.018288
H   65.314034   10.928720   51.676971
H   33.506073   95.651382   26.759819
H   17.060846   39.100254   81.537430
H   93.106514   87.494507   42.604595
H   68.055374   55.227718   82.712181
H   69.659592   98.939453   89.827530
H   94.243614   29.539787   99.864265
H   82.954094   73.549133   13.750198
H   19.465717   54.758110   63.644417
H   68.580811   84.577652    6.337982
H   46.995869   99.577675    0.126392
H   62.226978   89.033493   83.900597
H   91.346008   64.320061   29.305056
H    9.997583   91.971397   58.944210
H   20.143845   42.812752   97.437042
H   45.768448   84.085876   59.816872
H   36.172142   20.584919   83.312370
H   23.043932   76.954857   20.449442
H   32.756218   70.881767   83.999611
H   29.413836   76.110764   37.479008
