100
TIME:    6.432, STEP:  6432
H   82.352615   32.174919   93.257339
H   22.839043   53.405743   83.663979
H   90.326477   36.647316   47.841923
H   82.556198   67.651886   87.603027
H   37.560211   88.310593   91.308014
H   28.276623   94.239830   15.728428
H   15.869523   95.656349   93.443855
H   14.343781   45.051174   17.628490
H   95.517036   67.882797   95.214912
H   99.078590    8.738020   59.556553
H    1.966060   25.047812   20.187046
H   10.348061   46.093449   35.091759
H   33.627548   72.634636   85.905693
H   36.606209   85.250648   46.718761
H   58.729073   95.494896   41.587337
H   42.907593   49.162819   99.128418
H    6.883899    7.398460   58.918678
H   38.612507   81.858032   76.558144
H   45.445797   48.184822    2.226080
H   19.228859   69.219276   54.253075
H   82.592728   15.891026   82.666893
H   79.022446   52.622559   71.534073
H   99.865730   42.311180   48.323868
H   21.432079   13.773653   29.376841
H   99.539864   76.070602   84.041664
H   17.225637   36.513657   85.580696
H    7.439960   75.107620   27.587980
H   89.828415   56.663719   79.381454
H   51.028679   32.652996   53.127716
H   47.624134   31.648003   94.714554
H   69.196907   98.825951    0.499635
H   71.877686   74.800690    3.821599
H   23.418194   97.887108   77.242310
H   49.869423   84.268356    0.782197
H   20.881592   72.677406   16.378443
H   31.760015   89.210304   99.204109
H   96.711800   68.981567   15.281610
H   98.147285   41.245281   76.329353
H   73.576782   41.273308   21.003614
H   57.370197   10.040649   44.091068
H   95.670486   76.879524   93.880836
H   58.160065   66.826233    8.325360
H   66.641083    2.071487   66.063072
H   68.637527   20.603659    9.622994
H   98.727745   78.117294    6.513580
H   95.099998   85.597397    9.291922
H   91.984665   74.631851   87.205772
H   56.582920   61.617493   66.553635
H   53.041687   99.752602   87.898941
H   60.781200   28.631742   33.806175
H   43.059940   48.675629   21.229973
H   17.718098   66.898727   51.815468
H   42.291859   59.303650   29.307775
H   27.741890    2.256101   15.642787
H   28.669907   22.274403   55.056889
H    1.606807    5.767883   73.666336
H    4.013694    3.953695   67.724159
H   47.115387   69.464455   47.882431
H   97.555756   10.537459   17.698387
H   34.573029   22.172756   80.669212
H   65.436150   79.453262   12.907261
H   70.633675   68.073929    4.325069
H   10.728495   68.374916   92.408905
H   84.713852   76.800934   52.513096
H   87.619965   47.131428   94.552788
H    6.219368   22.519157   26.493879
H   71.517014   70.731293   77.598892
H   36.063637   85.389870   73.689392
H   77.472816   87.623840   56.830059
H   60.693344   71.654228   88.189178
H   17.787285   57.767960   84.992928
H   43.619091   38.059540   27.542370
H   87.612411    0.154846   96.829651
H   88.616264   42.337780   20.985777
H   72.282341   37.811214   88.986954
H   77.715492   19.803226   63.136086
H   50.945889   69.095604    4.814040
H   34.167385   30.147181   69.656288
H   69.949364   34.625912   89.442955
H   84.093979   58.638283   66.798637
H   36.736870   95.823654   64.414581
H   23.949442   86.183304   48.902935
H   24.713181   14.683902   42.494934
H   92.661095   62.559349   75.952812
H   39.144646   46.560532   24.242004
H    3.255511   45.312828   88.440704
H   96.733452   35.693993   30.246038
H   59.473259   90.378662   28.887985
H   89.164658   36.048241   75.585335
H   97.663040   44.646969   54.143982
H   87.246574   20.741745   69.293869
H   54.201763   79.227371   56.078758
H   97.757202   20.510784   16.401011
H   68.894295    3.395130   60.498871
H   45.387245   73.590805   63.886631
H   25.178452   41.738434   35.227921
H   52.060265   36.798828   67.279114
H   25.862078    4.714954   49.758125
H    2.307563   64.577141    6.289001
H   38.727032   13.579769   78.125877
