100
TIME:    8.673, STEP:  8673
H   30.802063   26.665682   91.205643
H   60.949142   74.842072   24.964993
H   28.851816   97.874817   21.532314
H   82.932343   75.322563   64.767647
H   17.481596   67.936447   30.543800
H   93.522583   91.811989   37.662125
H   98.418892   46.981148   68.693062
H   38.205597   38.926357   11.867129
H   40.428978   52.419113   54.153652
H   37.869637   40.916431   47.303749
H   93.513702   15.219312    4.322596
H   24.816628   58.423244   75.575584
H   90.701141   37.021713   63.207458
H   25.645975   78.343269   17.258793
H   85.948250   95.317726   33.816101
H   52.801010   53.156700   13.105917
H   26.676064   55.621212   62.925758
H   86.528687   72.810829   98.878494
H   80.349747   42.197102   20.289547
H   58.847485   21.633272    6.830729
H   49.608604   92.792328   21.844507
H   93.869301   55.597519   80.692230
H   69.945152   24.088987   84.205139
H   13.210787   40.582489   62.942852
H   19.388256   98.347137    0.591732
H    6.712919   70.423447   74.714767
H   14.196085   81.951187   72.055405
H    0.739723   61.266026   53.457275
H   99.756477   35.974087   47.194206
H   33.553596   76.182571   72.867310
H   57.394436   99.780937   23.198921
H   13.375710   12.887545   96.361046
H   81.271622   33.923912   79.129288
H   44.557404   78.894043    6.372294
H   65.108696    3.002216   52.725864
H   26.566313   64.738907   92.159950
H   11.652894   86.910408   91.863914
H    5.522011    0.229989   34.470558
H   78.982567   92.448509    3.834582
H   46.293518    0.245581   20.407789
H   42.513000   53.772186   46.676601
H   69.300674   75.614334   22.733280
H   85.927032   15.514528   27.933094
H   25.544018   58.222939   28.734509
H    4.337698   89.705482   98.282768
H   66.171074   28.335735   18.396326
H    9.498691   96.504768    8.719557
H   56.716976   84.699081    5.213547
H   18.551750   14.152855   98.503448
H    7.830135   62.742046   77.117088
H   42.906063   32.321739   44.854782
H   26.637056   58.949703    4.707495
H   88.770775   72.297729   99.157761
H   75.843109   65.700897   14.531913
H   50.237953   18.664865   74.111496
H    4.397970    3.410569   97.377396
H   46.081749   39.290855   80.861870
H   80.246521   57.829491   90.157738
H   74.297981    5.233257   45.659874
H   86.690361   94.423126   16.929832
H    6.799726   75.235596   38.180454
H   91.096184   47.215012    2.928061
H   62.871960   15.452857   38.736816
H   38.599171   89.008530   91.666382
H   76.570435   68.146851    3.247254
H   68.552834   11.112821   58.999805
H   91.717087   48.209263   85.794113
H   81.262238   13.555360   80.822159
H   89.162811   26.599861   16.276573
H    6.169042   84.266556   83.448318
H   46.622051    5.288629   58.115700
H   59.065903   63.622459   91.773544
H   41.495728   89.309044   39.374683
H   39.281528    0.506291   87.833809
H   80.258560   41.085751   58.894321
H   30.692324   63.432297   12.346927
H   54.476395   75.130737   44.559990
H   39.449337   83.619179   93.424316
H   77.414421   28.043385   14.446907
H   74.193413   36.560509   73.734550
H   80.603691   19.008524   98.356308
H   92.111343    0.716891   61.419815
H   66.462044   52.161411   55.916538
H   46.837357   54.326759   71.272057
H   30.027863    6.373215    7.003561
H   51.684498   27.626820   44.062729
H   46.404911   72.754402   37.105370
H   95.514732   11.051777    5.652330
H   35.675297   11.273819   57.256844
H   99.528580   52.446968   34.256088
H   78.957573   41.746983   16.620018
H   20.013071   47.771652   98.785072
H   41.409443   87.749107   89.700989
H   85.477188   39.353748   11.605579
H    6.638850   72.855728   15.382935
H   10.275878   53.244385   19.477440
H   74.180473   65.404427   38.396767
H   21.536417   15.600732    4.769499
H   95.551476   74.254311   18.582432
H   77.924164   56.068539   62.243450
