100
TIME:    5.227, STEP:  5227
H   63.841713   42.678749   94.360550
H   56.117958   88.106979    7.684202
H   69.604507   49.955032   61.990597
H   82.353943   17.297947   53.654327
H   48.353287   91.724609   23.979126
H   46.966846   95.545296   96.393211
H   79.022484   14.289007   99.211212
H    9.054405   40.803516   28.267986
H   25.138298   83.738586   71.066933
H   31.999063   91.435341   12.372213
H   14.052216   76.562317   36.258549
H   56.342743   85.693275   20.865335
H   10.521286   45.503716    5.640846
H   96.271507   88.964790   55.018028
H   44.079582    3.131046   99.514282
H   91.356918   54.556534   99.154022
H    3.782817   27.696346   49.222778
H   12.843633   40.489811   18.331045
H   26.680721   97.630814   38.740276
H   51.690826   94.813759   72.211098
H   54.099129   35.853157   15.374905
H   63.497925   51.022903   74.150955
H   15.956040   52.111366   82.799194
H   33.394062   99.358368   18.870304
H   42.636017   71.633179   75.142433
H   22.718706   72.136063   98.894821
H   11.348433   25.196278    3.676871
H   91.502937    0.418408   39.549911
H   24.827431   23.326235   10.089485
H    1.420355   61.471458   98.920570
H   21.770050   90.770905   95.835335
H   95.793312    8.097301   15.374443
H   38.540081   86.050438   68.686394
H   98.954086   94.699455   51.545570
H   50.842621   63.798965   43.015434
H   27.011530   94.829384    2.993330
H   81.136017   13.111298   20.332317
H   47.949612   63.300297   91.296806
H   24.438618   67.529716   37.776810
H   70.867714   22.848801   49.284359
H   78.023468   35.533852   65.491554
H   61.847496   46.448936   48.365856
H   56.264050   94.844711   79.025154
H   45.581394    0.377757   91.804611
H    3.252562   25.661438    3.398609
H   10.651480   62.613850    4.396186
H   82.570602    9.099545   75.640450
H   56.518566   49.206375   91.995094
H   17.821693   99.550537   35.966682
H   35.503620   10.289633   18.081406
H   43.145832   65.010376    8.527911
H   59.154716   78.713272   30.919159
H   17.294949   52.316650   99.292473
H   55.643921   21.919220   62.469383
H   24.613689   16.674002   44.806225
H    0.105906    7.035426   14.687393
H   27.621117   38.724007   53.118675
H   36.841934   83.261833   78.919418
H    2.519949   59.622696   10.202972
H   14.091486   29.552700   14.942268
H   89.423492   35.492496    6.858586
H   13.400187   79.289902   58.850830
H   28.920984   50.602219   75.039368
H    1.967762   70.236832   85.226517
H   39.791138   43.372478   82.336586
H   80.243187   82.423485   55.244362
H   68.196472   29.074097   19.421932
H   19.301308   16.474951   16.083426
H   17.414267   74.207451   32.404327
H   36.284813   11.044569   90.726562
H   56.052010   39.755325   99.444984
H   42.976891   78.050919   39.318275
H   66.181168   59.755791   27.727722
H   15.143314   18.602551   92.583427
H   14.186471   36.092045   97.639618
H   49.229507   42.574654   44.218388
H   41.532742   73.505318   83.490532
H   77.554291    8.939247    3.106266
H   12.167615   38.165379   76.002174
H   43.183731   24.278748   70.610535
H   13.156025   83.357376   92.394890
H   33.513939   78.363846   49.699242
H   48.494995   94.533264   27.736662
H    9.759607   59.444870   86.011353
H   97.817055   21.932541   41.053307
H   30.991863    1.049723    4.761884
H   16.254248   23.307449   72.787033
H   40.091949   86.808731   41.385040
H   64.158554    3.141689   85.440681
H    4.201121   94.221481   11.070837
H   37.933067   55.673466   43.846478
H   65.043968   88.599945   33.122787
H   20.514086   84.357094   23.216511
H   52.436989   30.289137   79.247765
H   66.219536   81.526939   36.196049
H   25.650391   89.323578   97.467377
H   47.707451   67.647514   36.579651
H   26.051634   60.742462   72.390221
H   59.710846   59.381840    7.220268
H   63.878506   44.499981   94.206818
