100
TIME:    9.124, STEP:  9124
H    0.303609   85.307442   90.792740
H   48.493240   99.279037   53.403248
H   36.604069   30.320515   16.238556
H   83.008041   56.741936   40.045197
H   13.440310    4.086053   18.316715
H   86.530762   91.323387   82.326477
H   74.780205   77.434654    3.961864
H    2.757889   77.943466   70.459114
H   29.342537    9.056661   25.763521
H   25.550467   47.392124   64.962227
H   51.562775   33.364838   60.878471
H    7.602020   81.029671   43.472389
H   61.942459    9.725197   18.389774
H    3.316045   76.953163   51.581341
H   91.426094   55.032173   12.128380
H   34.667694   13.710666   75.669006
H   90.409126   85.452477    3.982068
H   96.176590   50.865044   83.243240
H   87.375977   61.118374   44.048664
H   46.697819   12.055647   37.536919
H   22.845619   47.894791    9.603455
H   37.107113   56.196228   42.285385
H   63.923653   20.422754   71.301926
H   71.307465   45.977753   29.446241
H    3.258569   62.582733    3.920931
H    4.585609   57.127975   32.272663
H   75.306877   63.205250   81.001633
H   62.684021   82.317184   68.365501
H    9.563489   76.892754   25.875153
H   50.847343   65.020432    8.720699
H   75.143654   40.222439   87.517258
H   41.852161    0.427601   54.609688
H   13.038670    0.927632   19.758932
H   63.612869   37.562469   87.372353
H   53.884621   68.855171   80.164673
H   65.771194    0.062744   90.742317
H   54.908714   70.394295   27.400717
H   86.880180   91.978737   66.295296
H   59.947010   82.621422   60.128952
H    3.814998   58.025764   55.892784
H   11.690939   69.246887   57.301968
H   31.292969   77.382935   45.756748
H   89.808319   18.220608   60.507687
H   96.747963   65.795448   72.829781
H   65.215393   71.916252   36.877544
H   60.351303   36.937145   20.228582
H   13.024709   21.032701   13.050735
H   56.744503   89.344238   33.118565
H   31.733673   76.800148   80.514648
H   17.296675   69.609367   45.583065
H   42.875095   88.779869   49.610046
H   48.555737   17.099174   75.102180
H   98.123024   74.912781   72.965958
H   65.396667   58.341698   34.432320
H   14.328323   58.189407   77.944611
H    4.959690    2.936161   82.024292
H   74.673111   26.277534   23.755896
H   46.663757   15.237886   78.541405
H    9.869156   24.290506   11.035574
H   56.927769   29.089123    4.102318
H   35.250370   54.261730    3.018288
H   75.089317   43.017166   82.523430
H   93.488831   84.677391    7.810394
H   69.569702   91.465302   79.423813
H   94.469772   32.124912   45.247318
H   40.847054   88.692619   85.666451
H   55.533035   63.799786    7.568341
H   50.108719   39.349251    2.382568
H   11.639946   94.193893   87.991211
H   15.328689    6.920364   82.491760
H   32.297764   74.602669   52.706673
H   21.928267   48.647850   24.831676
H   12.090050   66.998528   27.809963
H   29.354656   71.960976   61.036415
H    1.983982   41.749836   93.089554
H   41.355537   92.335564   81.999527
H   95.436356   36.095196   52.559982
H   60.634693   54.131035   18.333725
H   99.043648   26.718655   19.480616
H   52.075584   11.991529   34.880394
H   89.432930   23.674326   25.312462
H   25.953991    3.644630   23.690439
H   94.986748   59.703770   98.865959
H   77.865105   92.919411   30.080952
H    8.068314   78.158798   63.284180
H   41.303432   44.194092   75.381409
H   76.526176   39.963036   58.610725
H    2.767841   74.963783    0.976321
H   45.034428   86.162865   53.568245
H   59.655552   33.890427   50.376503
H   97.414330   66.098221   26.144310
H   53.382504   81.691620    7.377656
H   70.319519    1.278867   24.577509
H   29.064741   66.715439   42.014843
H   98.840744   32.457378   25.745127
H   47.526596   35.434509   96.182251
H   38.381798   91.286552   12.458408
H   20.665880   37.915951   95.714073
H   74.066765   76.201836   80.807030
H    5.939076   44.496937   18.795750
