100
TIME:    2.740, STEP:  2740
H   32.026764   70.749382   96.637466
H   25.052223   53.304237   50.838337
H   26.852911   71.030685   91.174385
H   81.936508   19.762377   89.974304
H   70.629120   92.380600   91.412674
H   85.531013   98.239647   50.097675
H    9.367640   46.356216    4.724470
H    4.527702   25.646952   56.617100
H   86.273506   22.853683   27.613400
H   99.965019   55.725700   14.984286
H   45.386902   76.492447   75.818268
H   51.263962   61.032700   97.893364
H   68.969780   95.933411   52.794739
H   19.412254   96.630409   65.756447
H   13.828842   25.279249   19.062544
H   91.354401   72.078644    5.597217
H    3.772589   63.198914   22.821360
H   59.697403   61.454445    4.552933
H   87.942192   93.298630    7.717374
H   18.699280   47.626842    2.884587
H    1.681221   83.441742   82.874146
H   25.066818   47.721375   85.941986
H   49.161079   72.337975   53.956039
H   64.465820   69.543701    3.576696
H   31.584999   68.865356   56.777786
H   34.095356   45.965298   32.351616
H   25.805191   28.577993   54.338734
H    1.349234   84.333656   57.343487
H   70.749344   97.686531   27.650400
H    6.057675   23.025314    1.211187
H   23.890753   67.755768   92.598869
H   38.762367   76.807335   45.608528
H   63.360737   68.010872   44.637794
H   93.872215   22.617996   56.318924
H   12.662122   51.797180   91.575920
H   10.786542   99.725517   11.221040
H   42.600555    4.190317   24.366453
H   50.740784    8.804256   15.796293
H   29.416351   21.716524   78.786026
H    5.116423   55.674286   53.612431
H   47.991436   50.198215    6.899204
H   85.365562   34.831009   31.528070
H   34.842060   79.930908   99.387169
H    4.392106   58.694817   48.636292
H   18.981256   23.785259   90.579811
H   42.737820   15.178089   94.295021
H   63.140079   73.848053   51.761055
H   56.385746   23.594179   38.113579
H   45.121490    5.523451   35.174095
H   83.349327   72.449715   92.025909
H   43.335575    5.113890   82.306961
H   38.290913    9.487289   94.185265
H   65.717628   37.896179   43.734879
H   13.242794   62.505257   52.724762
H   22.628632   98.707733   23.655348
H   96.994583    9.652342   99.350739
H   69.954720   10.485452   16.584389
H   22.030365   18.128361   42.980301
H    6.375579   54.540661    1.131517
H   78.206558   38.393818   85.678474
H   32.542488   51.148174    0.764664
H    1.666470    2.439039   71.379578
H   60.086361   20.305841   45.583664
H   31.189871   56.699417   52.751911
H   41.077648   42.004917   50.732521
H   33.022560    6.059371    8.195271
H   67.733162   43.091038   99.348709
H   91.095100   74.240540   97.190445
H   93.462639   52.907402   88.384285
H   85.896790   85.957100   95.963470
H   35.025948    8.969800   29.281380
H   48.041214   60.589844   57.232666
H   28.338926   82.774651   91.492180
H   69.893120   75.987625   40.362206
H   94.278465   32.543850    9.108257
H   90.432274   83.181389   11.562798
H   15.728846   89.061905   39.508091
H   60.710506   71.559807   65.761520
H   92.906372   45.470486   48.250977
H   65.150581   59.729168   84.867813
H   64.501694   57.628216   43.751759
H   46.909744   62.121841   57.660500
H   91.159805   52.991821   90.871429
H   38.658009   46.626923   13.161041
H   18.914043   77.496368   82.140221
H   88.229309    9.698353   32.057247
H   50.153130    4.132614   54.197113
H    0.063740   85.923492   67.249397
H   12.545189   41.612938    5.783107
H   24.085415   96.542801   22.166691
H   36.154724   21.384323   91.325516
H   81.023331    1.570734   85.732536
H   61.087650    9.733896   30.889572
H   12.058668   79.434624   11.563184
H    9.216930    4.296342   79.049431
H   20.234390   87.532112   25.924591
H   45.113785   24.923336   79.609550
H   16.924994   39.567139   12.193974
H   78.186241   48.661358   15.533791
H    9.404556    8.324049   33.784821
