200
TIME:    0.670, STEP:   670
H   22.684134   61.047916   22.692310
H   31.796892   39.155670    7.353715
H    9.125268   87.959183   66.528008
H   32.337173   81.999702   33.255302
H   10.644723   94.627533   47.476135
H   75.629944   41.144119   52.821991
H    9.589156   54.999031   57.974346
H   12.524686    7.454169    9.809321
H    4.891034   81.059769   37.229572
H   95.724411   68.875633   79.111549
H   27.181383    3.779775    6.550072
H   32.555908   53.500160   33.230804
H   21.727993    1.278792   43.668083
H   84.079765   55.021130   62.986324
H   98.861465   75.254753   41.920586
H   16.766705    8.249271   45.046997
H    4.435494   27.857525   94.554665
H   26.351643    3.838573   35.864994
H   79.332291   14.134510   48.813828
H   91.424278   73.799522   20.801792
H   63.245522   98.223480    6.140438
H   80.456123   65.250374   54.004181
H   82.128700   59.415009   38.818596
H   17.716106   91.979546   90.237740
H   21.936493   29.997938   30.066799
H   18.305143   81.419617   92.754662
H    7.222947   67.424843   66.370834
H    4.378842   87.867851    1.862727
H   29.179363   43.459663   35.820473
H   73.618195   32.283512   83.751480
H   12.800093   69.414040   16.720535
H   24.106647   73.584457    4.189956
H   16.733513   18.238073   78.431458
H   82.195137   64.047050   45.806244
H   27.353029   72.033066   30.948027
H   19.015198   40.117760   84.407280
H   98.606232   65.148071   89.183083
H   11.645579   55.878323   95.833969
H   37.155869   31.002987   53.989777
H   85.958984   37.920223   46.899506
H   80.632256   85.136627   15.797021
H   34.742203   34.090050   27.080616
H   68.959549   77.903923   66.295158
H   36.323318   84.118446   34.127041
H   43.469170   89.414429   59.881340
H   35.008652    2.647813   47.364429
H   88.077332    5.145370    5.606705
H   79.647301   65.544044   32.189285
H    3.709976   12.434351   61.476353
H   46.729557   19.742002   87.520950
H   67.979202   65.053535   10.827575
H    4.700754   43.099102   72.786568
H   63.774162   82.124092   13.548248
H   16.006886   91.257950   88.070885
H   58.997910   66.821869   76.866722
H   99.793388   61.756523   92.728729
H    4.203320   18.372658   45.042011
H   72.106552   68.575500   97.542137
H   19.107733   82.784042   17.526463
H   33.158031   93.574623   59.045242
H   49.026886    6.986990   29.673141
H   97.664726   17.443521   52.362572
H   83.293701   34.114029   70.377930
H   34.544731   65.765816   13.268204
H   78.260681   82.489441   35.513172
H   21.871798   33.266899   40.592484
H   70.113136   14.091752   94.719093
H   94.933434   92.427559   95.784813
H   31.817648   11.664081   56.537224
H   42.761723   49.124607   50.959629
H   58.276527   84.029343   84.783264
H   20.055443   12.519336   41.754841
H   91.141251   33.097027   85.097031
H   21.874277   99.513008   73.091103
H   84.380936    7.832278   47.394135
H   64.182518    3.895714   60.067604
H   93.610107   45.958076   66.063271
H   10.628695   13.800005   33.263710
H   14.799717   48.850819   25.414761
H   61.796268   88.268799   73.869171
H   61.618298   22.834612   94.749756
H   45.544193   60.857113   74.564079
H    9.322076   18.383039   77.698463
H   10.651793   75.920418    7.866102
H   23.595833    3.870912   45.596260
H   36.781471   70.729309   18.831596
H   55.127335    3.680134    2.757144
H   71.755592    2.540228   27.660851
H   78.847305   73.103821   78.719360
H   21.290390    5.321251   50.134823
H   23.217747   38.604839   78.841873
H   81.060204   92.308197    7.750315
H   67.686890   12.012493   83.483200
H   40.745907   78.985115   80.911690
H   36.020424   51.109627   85.848793
H   51.464760   37.323212    8.844040
H   85.138573   99.406242   16.848152
H   95.074074   35.120171   52.664845
H   27.274406   65.470551   54.405106
H   74.681007    4.914415   27.355387
H   29.051298   92.315430   89.187904
H    6.561644   83.162079   63.492699
H   32.092896   21.455137   36.511539
H   42.537773   68.733398    7.238463
H   24.768728   21.821831   39.028614
H    4.446603    5.720198   23.758787
H   86.027794   35.436024   54.258041
H   62.217388   50.784195    2.114222
H   83.724373   34.661835   19.925282
H   18.179865   22.065020    7.641795
H   52.852005   92.330132    1.098387
H    3.259751   74.158386   95.409157
H   49.625664   85.264511   84.582268
H   61.767570   10.127079   63.865440
H   49.500740   99.874298   11.695542
H   96.490044   93.218605   98.332809
H   14.895547   14.497540   89.192917
H   38.589489   48.161526   25.383232
H   35.192383   73.857635   62.287807
H   82.130363   55.257015   65.383591
H   45.042488   24.616871   73.429482
H   99.735550   17.293644   60.836670
H   42.603218    3.686914   36.785404
H   97.742081   51.845337   99.034843
H   64.049706   98.305611   78.591560
H   63.475979   74.117035   17.228907
H   84.698311   51.197678   54.448166
H   66.023079   90.942467   38.634243
H   97.759392   36.918674   75.090996
H   88.587097   22.111248   73.827278
H   65.966820   69.832306   19.844067
H   65.195107   90.316208   19.467442
H   91.033638    3.515235    0.573965
H   79.835892   24.027729   54.999355
H   25.668415   93.595032   36.657593
H   50.905365    1.074985   77.346687
H   69.604614   87.660255   76.744835
H   94.886101   50.794933   76.404167
H   57.552704   50.347046   71.448387
H   43.680870   88.467278   83.509399
H   71.905731   50.423439   28.800140
H   37.442917   54.075974   56.270885
H   41.182526   64.675392   84.880539
H   38.009560   10.962420   85.249977
H   60.513958   55.506134   63.129368
H   61.695404   69.383865    9.251953
H   54.901237   94.894707   44.203014
H   30.911034   57.412453   66.357933
H   76.680634   46.839050   93.669785
H   23.169117   93.369392   73.905396
H   61.063988   68.612656   48.098003
H   51.888298   95.211403   34.677101
H   96.151566   15.760174   88.370026
H   21.276707   11.012817   65.326530
H   30.663662   65.235153   68.532295
H   76.267067   44.595112   67.290543
H   63.812298   73.779388   85.847336
H   52.159538   29.760712   19.798157
H   92.701424    0.114117   86.657921
H   58.858776   39.398956   94.742691
H   58.179771   66.939980   71.982857
H   23.414701   20.827927   31.818810
H   83.728722   15.822021   37.053257
H   27.058535   32.811764   52.801964
H   54.836983   36.679008   14.049599
H   19.322201   50.757389   59.951244
H   67.495430   90.612007   56.780148
H   24.007847   50.496658   65.793777
H   99.915779   26.771837   35.841576
H   46.096100    7.214751   85.561127
H   71.150269   10.747516   35.939987
H   31.308165   49.475464   58.778572
H   45.981163   58.977230   78.325027
H   65.930984   64.252846   84.215698
H   51.452209   91.801834   79.012840
H   14.183328   49.983543   23.699286
H   31.000362   66.354019    4.895286
H    5.541019    9.610939   70.378555
H   64.604866   11.383265   64.105621
H   65.845741   59.067680   92.450905
H   73.567245    0.598615   31.721573
H   27.900858   30.630947   85.314026
H   45.836308   89.713943   14.585938
H   60.845222   26.016041   93.009529
H   91.083649   69.683945   76.625290
H    8.262308   39.852158   86.106300
H   46.324829   97.159203    8.792925
H   69.762863   85.438667   40.572845
H   94.165504   63.090939   71.457809
H   57.432976   55.934216   71.135757
H   68.361649   16.797852   76.230782
H   44.127869   96.614838   19.147360
H   13.651727   27.753880   67.656944
H   27.591383   80.692154   41.979092
H   70.138290   35.048832   20.409710
H   76.377945   11.438581   23.675163
H   12.319537   97.284416   17.980330
H   16.412714   88.860115   34.839828
H    6.179162   12.815069   58.785957
H    3.522886   20.424408   91.774750
