100
TIME:    0.015, STEP:    15
H   16.308176   20.645630   99.132278
H    0.852965    5.557997   78.946716
H   80.022156   74.983009   23.163742
H   81.479126   32.033012   39.341217
H   95.036697   73.959839   65.298622
H   27.783733    1.197326   80.231255
H   52.183369   62.351871   91.625504
H   18.707327   89.899902    6.816189
H   53.259270   84.851135   99.142174
H   74.430687   16.602825    8.275881
H   98.859772   66.846069   38.304657
H   55.269596   24.442345   91.861732
H   42.307983   60.799866   23.638271
H   54.339390    5.031018   58.382637
H   80.685570   68.681229   50.052296
H    0.918152   10.426975   31.795399
H   22.859823   82.989082   74.720406
H    1.465396   93.971054   99.026169
H   45.497871   78.983200   64.151108
H   92.243355    5.217962   17.211344
H   63.386429   54.724808   56.833824
H   63.786106   44.119736   17.978220
H   85.543755   94.500221   31.922108
H   17.647907   36.861668    5.960228
H   29.046041   84.982903   36.668961
H   46.583958   27.168743   87.763878
H   60.786251   41.853985    0.264057
H   31.274689   57.139324   67.272263
H   11.497163   50.452724   56.463074
H    1.569291   90.468399   84.581322
H   16.691805   23.387323    8.225027
H   66.704468   52.095520   97.875481
H   71.415344   67.384789   99.148270
H   78.735924   72.348053   71.119545
H   80.398979   57.786301   25.642151
H   73.859337   85.664360   20.592718
H   81.239525    3.983886    9.645811
H   63.368126   58.679707   23.500216
H   50.046993   80.187782   40.689323
H   61.779682   10.778633   39.214203
H   34.216396   56.693783   42.691021
H   30.273056   12.529629    3.505181
H   11.371064   63.589886    2.557107
H   78.401855   13.023286   82.197891
H   55.353577   31.300117   57.390709
H   77.759865   63.485928   83.377113
H   36.238453   26.549572   27.751410
H   56.240215   95.536133   69.506058
H   65.465385   31.206776   43.876305
H   26.204382   30.977703   82.615738
H   43.536526   68.196846   53.587116
H    5.862531   62.347961   73.077988
H    9.190607   22.095703    1.998257
H   76.336685    6.957627   32.477558
H   39.565720   59.820606    0.533474
H   93.585007   12.516727   92.116165
H   97.203438   89.113976   57.414085
H   24.943289   75.469887   13.168663
H   91.460442   39.402878   10.331511
H   58.034477   28.940672   63.170883
H   60.647018   77.872665   13.226804
H   98.378754   27.805740   94.675156
H   75.251152    6.130373   32.529022
H   44.069511   41.876076   26.733763
H   32.916611   59.647121   96.957848
H    0.424037   41.527485   47.072781
H   86.364861   48.880291   67.786545
H   79.329552   18.395012   66.919685
H   57.651428   48.708519   59.292988
H   30.690571   48.898735    1.699226
H   21.556711   94.383583   61.967503
H   72.729515   51.027702   57.720760
H    6.013391   17.565075   61.365108
H   29.860806   48.431141    2.317131
H   62.893284   28.665041    2.534724
H   26.012289    8.533518   94.920761
H   68.317719   25.244083   91.296936
H   32.685059   49.739109   15.268385
H   62.273537   53.455509   17.855709
H   98.789810    8.136855   19.628778
H   11.175753   29.435896   80.885239
H   42.449848   44.325516   85.526184
H   18.744995    7.507710   31.328432
H   51.202347   13.445164   62.060127
H   51.601036   47.947861   46.298134
H   50.955082    9.598517   42.827061
H   68.156532    2.262305   24.258465
H   56.196640    4.093176   95.581932
H   55.994576   93.337410   28.078365
H   65.008430    8.669975   24.748114
H   24.636446   74.240524   33.778515
H   79.396477   96.634895   33.810959
H   86.246666   28.080839   20.075056
H   48.678116   14.142046   27.830433
H   56.332325   48.386585   16.432236
H   95.160492   95.139336   66.674126
H   61.411674   68.541206   36.326195
H    6.920520   16.365387   55.795082
H    7.997381   36.914951   43.795025
H   40.173077   78.317116   96.241074
