100
TIME:    7.887, STEP:  7887
H   83.956779   98.745842   91.925247
H   82.657211   32.249012   75.406631
H   15.341242   41.325897   30.758244
H   82.800415    7.705482    7.848687
H   24.524725    4.935115   51.855881
H    5.710025   92.663521   59.822899
H   39.612377   93.905045    7.226841
H   99.983643   70.926872   84.035713
H   59.750359   27.990440    3.627904
H   59.337837   29.630632   16.527157
H   66.625504   83.593262   80.033371
H   54.818138   19.024899   31.523243
H   40.821983   84.596161   41.318462
H   64.564095   80.765938   57.445301
H   76.401497   65.527115   71.614532
H   84.403641   21.903259   78.350861
H   89.881325    3.635490   91.373077
H   69.725922   11.057522   26.123940
H   68.104477    9.221227   78.879135
H   80.026382   38.323963   53.316231
H   96.250969   71.042175   43.176212
H   18.514711   54.554092   47.627365
H   80.439384   30.478476    6.693231
H   86.242050   31.179659   21.316292
H   47.499458   60.682724   94.787209
H   10.419506   93.594711   48.681030
H   81.974457   14.623099   56.461079
H   67.058617   24.578192   27.474077
H   82.665871   64.662308   84.349785
H    3.416386   95.635880   10.382690
H   26.457975   29.298515   85.384743
H   63.747280   34.601826   69.124977
H   25.906256   91.432304    8.320203
H   11.346002   50.926186   39.483810
H   84.669945   62.513451    4.902450
H   58.241032    3.172214   94.630592
H   36.265079   15.696177   29.929960
H   38.008118   14.614681   79.004662
H   12.158130    9.573439   80.003609
H   20.326546   73.829361   58.568260
H   96.231476   26.805006   28.158781
H   35.540627   72.532028   82.605156
H   79.162750   10.799620   71.158821
H   75.731354   45.025352   51.883907
H   72.516228   20.712490   31.022324
H   76.317497   13.346972   15.203081
H    3.353894   53.760262    1.171289
H   56.669003   76.603531   56.580410
H   95.576973   79.248482   29.857796
H   91.329346   50.778622   32.072968
H   42.960033    8.204351   36.567337
H   88.436432   31.883410   56.304443
H   72.471733   67.740234   44.806770
H   94.049103   78.521851   79.848221
H   12.820080   49.784332   67.431168
H    3.419008    4.237365   24.134705
H   96.254227   61.970390    6.106757
H   38.773117   32.057915   10.403451
H   12.305012   72.022926    6.000835
H   38.557854   34.009350   39.285545
H   57.218761   11.790056   99.464241
H   18.992897   54.530991   38.492599
H    9.508552   69.088287   92.635193
H   84.626213   84.726883   13.005670
H   45.372002   30.922396   30.051313
H   16.837276   50.187157   12.525237
H   54.779877   21.036987   47.846966
H   35.556831   68.603264   43.246811
H   49.990196   83.076820   65.575287
H   90.205620   44.787174   85.115402
H   71.584511   58.770859   67.542519
H   23.792416   89.720116   34.160320
H   92.743561   28.189352   59.529606
H   56.582020   50.250744   34.534210
H   42.395370   39.928387   99.299454
H   12.108851   13.055115   65.233009
H   83.090538   43.161072   30.617949
H    2.525671   35.010937   50.010113
H   39.723000   30.352116    5.675228
H   12.739608   79.376976   41.449043
H   65.216148   10.876992   51.378128
H   33.130898   95.618958   27.178120
H   16.744589   39.016636   81.061279
H   92.762505   87.066650   43.061253
H   68.298828   55.540485   83.196877
H   69.774643   98.755814   89.480316
H   93.909676   29.903328   99.625847
H   82.873680   73.949219   13.802040
H   19.361938   55.036507   63.685310
H   69.022858   84.783340    6.159249
H   46.791248   99.307671    0.020798
H   61.857029   88.657440   83.805305
H   91.025497   64.170067   28.918398
H    9.514357   91.668053   58.607067
H   20.230305   43.260635   97.322144
H   45.355469   84.283325   60.075127
H   36.569023   20.297997   83.599922
H   23.053583   76.707436   20.549826
H   32.994408   70.860176   84.418388
H   29.103281   76.239090   37.960690
