100
TIME:    9.287, STEP:  9287
H   89.280426   70.359474   90.643509
H   43.991440    8.112015   63.681530
H   39.405880   42.047493   14.325018
H   83.035400   50.026543   31.110056
H   11.979712   17.150986   13.897465
H   84.003784   91.146797   98.468292
H   66.236732   88.440437   16.708675
H   89.946411   92.045792   55.493027
H   25.335686   93.384674   15.503271
H   21.097788   49.732563   71.344337
H   36.400909   39.923538   45.176888
H    1.380337   89.200066   31.869690
H   51.548523   99.859474    2.191423
H   95.245270   76.450752   63.986164
H   93.405891   40.472206    4.289950
H   28.113598   99.453842   62.138733
H   77.301674   96.234413   18.820601
H   99.663620   42.933418   77.592361
H   89.915390   67.956161   52.635662
H   42.306698    8.594110   48.634727
H   13.172874   31.667181    5.178968
H   52.734081   56.412613   28.404419
H   61.747368   19.097708   66.638458
H   56.162365   47.927704   17.340502
H   97.428818   49.655602    5.124111
H    3.816741   52.322739   16.933577
H   61.251564   56.428921   84.234970
H   48.931145   89.925476   73.752739
H   13.108035   91.681541   18.170483
H   57.097633   60.986221   21.678299
H   81.558098   54.838367   74.621216
H   52.144123   95.923416   39.519951
H   24.520668   89.001633   34.443260
H   70.499878   22.624451   80.505241
H   49.828026   56.513771   90.081070
H   79.940674   12.830098   90.229958
H   70.542419   64.425056   40.244526
H   80.142403   88.996605   77.798515
H   53.066219   79.069725   44.332855
H   88.461792   42.765656   68.717484
H    0.551366   74.840561   61.142178
H   17.556259   78.022141   54.077618
H   91.211090   19.198692   72.281639
H   86.341591   68.531349   88.767647
H   51.076897   65.486885   50.826908
H   58.248390   40.046124   20.890795
H   14.299079   29.897642   14.616106
H   56.754452   91.023087   43.204090
H   36.497871   63.299786   74.013153
H   20.717794   72.091576   34.185551
H   42.992832   73.054085   51.131805
H   56.477413    1.973944   64.402321
H    1.503500   75.857910   63.499741
H   61.621910   55.681656   41.625252
H    1.349663   72.473801   79.329971
H    5.162706    2.764701   76.475388
H   85.007355   21.574272   39.258507
H   34.526306   99.844170   74.343040
H   22.724781   31.178137   98.522011
H   46.171947   41.618305   99.466225
H   45.533627   46.682041   90.311012
H   69.304131   41.499985   75.148933
H    4.554604   73.554710   96.632996
H   80.762024   92.353226   74.999115
H    0.939028   19.105755   60.426594
H   30.833729   80.589378   95.304283
H   42.455429   69.435699   15.438400
H   38.849243   48.671211   10.174911
H   19.764162   82.481750   77.768890
H   18.639130   15.107237   82.146042
H   27.121281   63.512264   50.751747
H    8.505738   43.235741   36.779232
H    1.462103   58.935863   23.630253
H   25.766895   61.644428   51.351326
H    9.835397   41.989849    5.448253
H   45.209427    2.781915   71.031052
H   10.240363   21.986652   55.451332
H   68.292183   43.473457   27.336082
H    6.859948   26.239872   21.299990
H   44.081779    3.111891   20.837761
H   92.623985   25.360636   35.054756
H   38.185020    4.702771   10.053839
H    5.296508   62.429722   14.389539
H   89.079811    6.867689   15.193903
H    0.131714   67.961349   47.483109
H   37.551517   50.181984   86.700577
H   87.412575   28.111610   66.383171
H    5.389139   61.920998   99.286819
H   48.416996   77.087135   52.235115
H   45.243572   27.183739   56.202728
H    4.085099   74.900360   29.586571
H   65.442856   93.950943   10.482934
H   80.768173    6.169874   37.182549
H   44.688515   76.593796   53.202572
H   96.022766   17.856373   29.490202
H   60.989716   28.997972   87.763138
H   25.443790    0.640825    3.083906
H   20.351252   45.980640   92.440941
H   66.301781   76.905708   67.154884
H   16.063461   40.314739    3.093173
