200
TIME:    0.860, STEP:   860
H   28.522337   60.417347   25.941193
H   33.490051   41.929451   15.067145
H    5.143012   96.275452   75.886528
H   38.741440   84.220467   28.286850
H    8.627444   99.443054   44.744392
H   69.448914   35.987221   47.198326
H   12.341918   54.864220   61.651943
H   16.782480   15.658095    3.065248
H   12.606775   78.211334   32.594524
H   89.036026   66.213371   71.617195
H   33.803814    7.838429   12.554253
H   33.341583   58.571533   42.284187
H   26.391308    7.585121   35.880913
H   75.099586   55.822750   72.141899
H   89.688492   76.717384   41.453094
H   11.228722    0.420805   40.948296
H   13.374306   36.755905   85.330795
H   21.840172   12.972951   32.482388
H   85.653931    7.256038   51.610802
H   92.028755   71.190269   13.436387
H   65.525719    7.707891   97.435791
H   76.226234   72.512794   46.682327
H   76.439079   58.033554   34.259651
H   21.740517   93.711800   89.641960
H   30.194778   37.639427   23.287090
H   18.147863   89.851852   86.479408
H   10.902518   71.237251   74.010147
H    8.739556   95.705757    2.362659
H   37.181797   37.684517   34.707916
H   65.032303   37.373730   77.179062
H   12.552032   77.351967   16.952831
H   20.651562   78.037582    8.868021
H   12.142677   22.326265   80.752243
H   75.906837   64.254341   49.127243
H   18.234777   64.182114   29.502428
H   12.807316   35.785782   86.584679
H    4.059410   61.047195   90.609474
H    2.247432   60.793140   87.291565
H   30.123932   24.199722   58.213142
H   84.136856   37.138897   39.477631
H   80.688789   76.260818   22.103447
H   44.199295   30.105692   21.446442
H   65.538528   73.539223   73.350288
H   35.900040   93.346504   40.921970
H   49.961136   95.211319   66.737877
H   32.334892   97.703163   49.430813
H   91.657806   95.836487    9.772140
H   75.021675   65.541145   25.358841
H   11.057975    5.224297   61.613338
H   39.930279   20.599432   79.483002
H   63.459396   62.648674    3.297830
H   97.437981   46.369366   76.871498
H   68.899864   76.692009   16.029518
H   13.178926   95.267502   90.884529
H   50.955612   62.596329   70.721931
H   97.358086   57.075089   98.950348
H    3.661113   19.091652   43.003895
H   74.182358   72.992386   94.112419
H   15.098543   86.454391   22.121647
H   28.763615   92.507729   55.532898
H   48.411537    3.280048   24.121593
H    1.079737   17.893618   53.819405
H   88.528152   38.049652   63.967861
H   39.148613   66.036888   17.510414
H   81.314957   85.321930   43.282948
H   14.418433   40.648186   44.007706
H   63.015968   10.083831   98.644569
H   93.869438   92.859535   99.546486
H   38.575623   14.231658   54.132362
H   41.668011   52.436184   50.949482
H   58.193176   87.315552   89.865509
H   14.715534    7.525325   40.424847
H   97.171524   36.381786   78.734802
H   28.064367   95.336754   78.622719
H   86.694473   10.907935   38.460342
H   68.984993   97.188118   58.826035
H   92.807037   53.031326   63.375568
H    3.591449   17.259802   26.766670
H   16.247293   57.311913   21.196318
H   58.932613   87.209152   64.858551
H   69.682335   19.623419   91.928864
H   53.898876   57.439716   68.690361
H    8.580794   20.467180   72.139305
H    4.455956   82.133339   14.058545
H   16.829895    5.880124   40.211777
H   42.134064   64.081512   14.876455
H   63.642921    4.076052    3.192744
H   70.175545   95.468964   34.827095
H   84.663040   73.566238   79.403564
H   20.338737   13.838106   48.044521
H   15.253347   40.245045   77.996765
H   79.736732   93.975220   11.896122
H   76.713455    9.869644   78.071899
H   32.225971   72.159019   86.128746
H   40.834496   48.539513   93.762077
H   43.596413   41.571220   99.910713
H   87.715935   92.833824   25.031059
H   94.918633   38.943607   55.511108
H   22.969139   63.567245   55.078438
H   77.984612    8.001577   27.401773
H   37.528469   97.568726   98.134743
H   13.626378   86.036606   62.444649
H   36.031418   14.511302   39.166454
H   51.667259   69.084198   14.783916
H   24.516863   19.324921   45.188625
H   11.968904   96.417984   14.863070
H   89.960762   36.923893   52.326458
H   61.097584   58.079231   94.767586
H   88.552940   32.263496   29.112751
H   24.283342   19.415903    8.571703
H   55.351814   90.679054    1.232066
H   10.888378   78.936218   97.573387
H   46.325684   87.469330   80.449501
H   61.123955    6.030958   58.966568
H   43.160255    7.785934    5.033431
H   88.736214   87.660896    6.904407
H    7.083552   17.173010   91.407883
H   37.625515   57.513523   21.585320
H   42.407692   80.991043   52.898121
H   87.144478   59.049129   72.472061
H   47.025520   25.879459   67.203514
H   91.538147   12.792683   66.425232
H   47.183907   95.673538   42.422115
H   94.942932   45.008369   90.714226
H   58.364433   93.601707   72.307610
H   70.436462   79.315765   13.560509
H   79.975563   52.084824   47.110367
H   61.867119   92.432640   40.238934
H    0.097575   30.041119   70.761086
H   97.796310   21.210693   77.064201
H   73.636574   63.048248   27.105038
H   57.902245   92.200668   23.948109
H   90.413216   12.758875    1.987782
H   70.519409   28.899059   57.337536
H   35.054478   90.159515   27.926743
H   45.844864    0.831138   74.547539
H   69.919174   88.144417   86.203377
H   96.506737   44.862507   73.402077
H   62.518982   53.004135   71.403450
H   43.783791   79.355186   78.230011
H   81.312088   44.836014   34.937683
H   28.696259   59.848946   60.700092
H   35.074699   68.171791   78.471924
H   29.303352    4.084682   88.398476
H   69.444855   49.204788   69.342285
H   68.657524   72.657028    0.152105
H   59.394951   94.062645   42.842579
H   25.722969   50.339928   65.267845
H   81.759979   38.906197   91.780975
H   29.225845   95.443748   66.795181
H   54.367630   71.839432   46.663639
H   59.886383   89.953758   28.722931
H    4.978159    8.655758   81.700485
H   26.299156   15.374075   60.630802
H   38.197880   70.253616   71.969261
H   81.907402   45.066227   73.136719
H   65.801132   79.477707   88.097092
H   54.860840   26.712234   24.249470
H   84.005363   99.398056   79.611488
H   56.728611   31.646559    2.033945
H   60.046112   59.220940   66.931053
H   14.493593   19.843296   30.172806
H   91.907280    7.538011   36.974255
H   34.032745   38.393391   44.673416
H   53.017754   43.126038   15.916483
H   22.595726   44.711895   58.912617
H   64.223717   87.538887   58.794346
H   24.173824   59.141258   73.650528
H    2.498009   26.153952   35.392929
H   54.766792    5.780931   83.421539
H   67.520508   13.007056   35.924042
H   24.744081   42.418159   59.362030
H   49.652237   50.812443   72.978958
H   63.591225   59.709084   88.623886
H   42.621338   90.372543   70.079048
H   20.046379   51.013756   23.891861
H   29.048496   72.290070   12.842636
H    7.224984    9.792137   72.808060
H   59.745220    6.966199   61.884098
H   56.808159   61.105797   95.131187
H   70.098389    7.407746   27.304325
H   31.733198   30.862881   92.250290
H   37.087337   89.512451   18.350510
H   64.982887   26.367565   99.999428
H   93.540695   61.443054   75.842514
H   12.239788   41.455399   87.057228
H   52.940735   93.904884   13.002882
H   60.634827   93.486763   47.221367
H   88.662880   63.938221   73.629288
H   60.888062   54.900661   73.536270
H   77.437500   10.511726   74.873970
H   42.570290    1.778335   16.727278
H   17.872093   32.274071   72.010048
H   24.272196   88.274933   45.808170
H   63.618011   26.562469   19.788200
H   76.841812   11.904804   21.072071
H   13.582488    2.465471   24.393293
H   10.890715   85.083946   29.481438
H    3.645475   13.346704   50.288490
H    1.541167   13.987221   89.135056
