100
TIME:    6.339, STEP:  6339
H   88.641922   40.703514   93.342484
H   25.407200   48.365925   77.800392
H   88.727188   29.956520   48.933895
H   82.540588   71.483368   92.700317
H   38.393204   80.856232   93.829697
H   29.719105   94.340584    6.518325
H   20.743660   89.376976   86.171135
H   21.653397   37.005772   26.167728
H   97.803154   76.824341    1.068663
H    1.618936    7.402540   55.915226
H   10.616684   21.305731   29.145264
H   13.897858   41.431812   41.711708
H   39.562088   78.258400   95.146660
H   41.211082   85.537300   39.641163
H   57.599495    3.802095   46.059528
H   46.646835   57.296913    6.848376
H   14.362548    1.247352   50.452522
H   36.623684   86.383438   79.782265
H   43.997639   44.283096   97.326340
H   21.734222   71.194618   47.921196
H   88.111481   25.149731   85.191414
H   70.106445   52.499100   79.453888
H    1.107523   43.067543   50.984619
H   30.073135   12.661104   36.284016
H    2.865979   83.445496   83.354836
H   17.649584   39.263100   94.326408
H   15.459465   78.973160   25.742483
H   97.675858   52.322792   76.307755
H   49.006508   24.215549   57.523987
H   44.058018   33.949730   87.321213
H   65.537132   90.486092    7.857431
H   66.005585   77.370621   12.431038
H   16.867424    4.691346   68.864136
H   45.940025   92.791275    4.699947
H   23.196091   79.718819   10.720077
H   23.675943   81.926231   99.496437
H   87.791542   72.387329    7.953723
H    1.991274   42.947453   69.766167
H   77.501923   43.299736   30.015757
H   66.129562   18.747105   36.773647
H    2.026402   73.688042   91.689796
H   65.997574   66.461533    3.577595
H   65.840729    1.513591   59.345695
H   74.576324   19.042685    0.530087
H    6.794838   81.787003   98.555161
H   96.300529   83.823563    8.914095
H   91.258102   69.574295   86.313179
H   56.577953   60.659622   60.799320
H   50.323463    7.454667   91.608383
H   58.829273   27.215868   40.309052
H   43.066326   57.654068   20.249752
H   13.197414   75.528076   57.920296
H   40.362637   58.764404   34.709278
H   29.895325    3.773616   11.539199
H   36.074760   14.124303   54.265759
H    1.490976    5.865710   76.832275
H   98.117836    6.637328   58.879112
H   54.040436   78.247063   50.277817
H   90.220596    6.607530   24.837715
H   40.709785   15.024205   83.314354
H   59.569721   83.778580   20.158062
H   73.934425   68.939560    8.533214
H    4.414659   74.720985   98.786194
H   78.328049   76.294327   55.038326
H   83.928970   54.559536   85.892220
H   11.932178   27.142479   20.994993
H   78.978470   67.515686   73.108963
H   42.487755   80.071205   69.243454
H   72.838142   94.306229   62.663136
H   58.809532   66.976982   88.385010
H   20.740719   64.095581   86.108315
H   51.287022   41.146011   20.733330
H   93.676086    4.754753   99.213684
H   90.663979   48.223362   26.511271
H   67.798088   37.678532   81.937027
H   75.517357   13.842789   69.394073
H   42.499599   77.144554    3.164640
H   29.798077   36.228485   64.520683
H   65.489235   34.899082   88.405617
H   88.654861   63.704353   74.810692
H   34.916916   94.861526   58.856098
H   16.970823   85.580200   56.682972
H   18.830437   13.128781   33.637825
H   86.262520   54.601219   84.447350
H   43.672890   52.377998   33.257339
H    5.396085   41.896423   81.982529
H   90.522194   42.455849   25.811453
H   57.977562   97.820251   29.852242
H   87.234726   41.226418   76.345955
H    5.885480   48.473484   50.819817
H   83.440636   15.720020   67.329880
H   47.320705   72.232788   54.307053
H   91.795700   17.720188    9.209178
H   59.906246   97.752998   54.228012
H   46.995049   81.920731   61.749516
H   17.497040   45.410980   40.031464
H   59.442253   31.461752   72.627579
H   26.041590    0.113333   51.624908
H    6.737803   64.175545   14.078972
H   32.950718   15.966286   87.084450
