100
TIME:    1.010, STEP:  1010
H   49.019936   29.399086   98.221329
H   73.175240   59.507175   41.710690
H   97.117645   46.567181   11.480812
H   81.646133   91.037315   84.801994
H   86.124573   53.713478   38.319328
H   12.354523    0.114408   78.769646
H    0.037206   29.537588   69.436089
H   40.502289   75.979294   15.458660
H   28.800270   89.185928   36.511047
H   47.238838   30.885757   47.241753
H    6.307281    6.882108   42.461052
H   17.290585   74.316841   21.035982
H   79.015686    0.600808   24.743387
H    5.072615    1.963208   34.101704
H   92.786018   79.807281    2.221678
H   60.914398   23.394657   49.201645
H   42.864037   48.789902   65.313332
H   22.727417   45.584442   64.531540
H   60.991608   20.723467   16.573977
H   65.309608   84.356262   85.092278
H    4.341764   55.669434   29.831451
H   59.193226   45.433022   33.255795
H   72.259071   86.407951    3.451971
H   25.201614   48.795109   32.063232
H   93.461174    6.073902   44.014496
H   42.027866   97.515396   94.505966
H   74.985992    0.491596   20.008520
H   47.319740    3.582663    0.157560
H   33.132614   40.726810    9.429527
H   39.720592   65.842392   63.680660
H   55.832279   12.615294   29.488823
H   29.529058   24.607613    5.763306
H   41.500935   94.586296   88.785728
H   20.776970   81.162300   29.200930
H   55.666695   82.571815   86.230682
H   60.370575   63.825390   17.169065
H   76.670677   67.547707   88.049446
H   22.246338   40.468304   93.714882
H    5.313641   58.947472   45.323601
H   68.061867   17.630175   17.498404
H   66.217819   90.837593   66.139694
H   40.848137   57.188789   50.251575
H   19.940557   69.556610   74.425819
H   14.864138   29.697462   79.486092
H   69.044579   92.041946   42.537102
H   65.052116   82.190971   87.279015
H   46.744740   80.224991   36.253609
H   56.293354    5.782327   31.070982
H   94.555046   48.800400    4.183766
H   47.072720   46.122242   13.024742
H   43.467564   72.134483   64.066147
H   54.216728   70.019318    7.756359
H   29.830584   27.865051   44.210938
H   53.301311   90.725105   76.385330
H   60.354858   47.047184    8.976645
H   94.829971   11.470484   58.244019
H   60.279930   60.403877   52.046883
H   50.851746   81.505486   87.539627
H   69.932594   81.443207   33.944874
H   92.369598    5.418959   34.882774
H   23.412394   31.601738   35.648010
H   63.064270   18.544418   49.656639
H   42.740791   38.279518   64.268166
H   12.393728   47.288635   99.716591
H   72.412254   80.177483   89.620552
H   39.299324   92.063057    5.904758
H    6.534090   83.280487   15.825089
H   10.598247   75.299911   14.486442
H    7.239365   77.214172   96.886177
H   50.845589   98.942528   99.606354
H   89.959572   26.680952   50.034061
H   90.688126   18.005775   30.568693
H   41.138321   68.346138   35.850925
H    7.960750   85.465057   43.181297
H   10.868657   30.080809   77.962578
H   49.537563   72.305199   27.969814
H   58.657230   39.006462    8.905670
H   79.431961   84.679665   70.219833
H    9.963457   50.543797   28.950317
H   49.993271   53.948517   33.908691
H   30.646832   39.730572   40.353512
H   17.103859   50.823624    2.321522
H   81.702141   24.114534   26.097263
H   19.648291   98.588600   71.177711
H    3.150302   85.707916   49.844246
H   28.046017   46.154324   11.920824
H   34.610344   29.917702   71.703766
H   72.214172   24.431095   85.242653
H   76.642769   37.936485   19.936752
H   77.039688   67.724258   60.319927
H   65.355904   27.969271   54.791088
H   53.016727   71.467796   52.766304
H   50.087181   57.892166   97.050896
H   44.848534   74.497612   94.918022
H   39.130558   59.260887   39.294487
H   77.343430   55.847038   15.281353
H   82.433487   25.642073   79.102936
H   10.573527   24.837219   39.876236
H   60.597954   41.204006   60.447353
H    1.965850   52.761639    0.408163
