100
TIME:    7.795, STEP:  7795
H   90.178459    7.182507   92.009476
H   85.198105   27.263386   69.606094
H   13.759851   34.706940   31.838123
H   82.784973   11.496117   12.891691
H   25.349112   97.560966   54.350449
H    7.136821   92.763191   50.711479
H   44.433758   87.693192    0.032303
H    7.214668   62.967365   92.482430
H   62.011894   36.835999    9.419029
H   61.850655   28.309649   12.924633
H   75.183121   79.891418   88.895615
H   58.329765   14.413448   38.071983
H   46.688499   90.165070   50.460766
H   69.119453   81.049507   50.443806
H   75.284065   73.745010   76.039337
H   88.102676   29.949890   85.987579
H   97.279396   97.550339   82.997955
H   67.759186   15.534092   29.313042
H   66.671188    5.361515   74.031784
H   82.505508   40.277363   47.052437
H    1.710375   80.200623   45.672886
H    9.694581   54.431961   55.462021
H   81.667717   31.226355    9.325547
H   94.789841   30.079073   28.148979
H   50.789986   67.978638   94.107765
H   10.853283   96.306870   57.339020
H   89.907379   18.447489   54.635426
H   74.821678   20.283941   24.433077
H   80.665443   56.315266   88.698784
H   99.888824   97.912857    3.069145
H   22.837202   21.048683   92.663490
H   57.938320   37.143421   77.641884
H   19.425924   98.163567    0.032112
H    7.458680   59.357460   43.359726
H   86.959557   69.479149   99.304962
H   50.243534   95.966293   94.919777
H   27.441257   19.065668   22.680693
H   41.810333   16.298405   72.512047
H   16.041592   11.577726   88.919197
H   28.991905   82.441727   51.329521
H    2.519025   23.648542   25.991301
H   43.293861   72.171249   77.908012
H   78.371002   10.247747   64.513191
H   81.606293   43.481163   42.889004
H   80.496880   24.342037   23.149414
H   77.505119   11.592563   14.829317
H    2.634705   48.757088    0.287723
H   56.663387   75.655960   50.887966
H   92.887276   86.868355   33.527847
H   89.397705   49.378323   38.505920
H   42.966351   17.086599   35.597305
H   83.965302   40.420666   62.343628
H   70.563957   67.206787   50.149666
H   96.180084   80.022522   75.788406
H   20.145504   41.721558   66.649246
H    3.304422    4.334140   27.266602
H   90.421402   64.624992   97.356712
H   45.623703   40.746086   12.773255
H    5.049041   68.135780   13.063747
H   44.628624   26.937664   41.902245
H   51.415417   16.068340    6.637206
H   22.258156   55.387314   42.655594
H    3.262595   75.366119   98.943909
H   78.309074   84.225723   15.503572
H   41.719994   38.270580   21.483519
H   22.488659   54.760765    7.085304
H   62.161102   17.856308   43.405315
H   41.911873   63.341789   38.848679
H   45.404655   89.687355   71.344940
H   88.337151   40.166538   85.310532
H   74.505836   65.030441   68.645912
H   31.368420   92.774803   27.416887
H   98.742035   32.740093   61.888706
H   58.607014   56.073040   40.000641
H   37.963547   39.792919   92.323929
H    9.933825    7.158755   71.423805
H   74.735069   51.124176   28.986372
H   98.203598   41.026257   44.929028
H   35.311531   30.622349    4.648518
H   17.251225   84.388573   49.374947
H   63.415062    9.925210   45.879410
H   26.227375   95.022339   34.874722
H   10.925450   37.478062   72.300110
H   86.432732   79.194092   51.463749
H   72.778381   61.295399   92.115273
H   71.891586   95.376846   83.091583
H   87.765205   36.592476   95.238945
H   81.394066   81.310791   14.755928
H   17.452408   60.159004   64.437752
H   77.156525   88.568008    2.870564
H   43.026234   94.339592   98.077927
H   55.049961   81.738068   82.051949
H   85.128098   61.409519   21.803896
H    0.623057   86.086510   52.403637
H   21.821171   51.501694   95.208008
H   37.756653   87.916382   64.827019
H   43.871635   15.018590   88.890877
H   23.231165   72.154884   22.396887
H   37.377098   70.462898   92.123894
H   23.389078   78.600296   46.823635
