200
TIME:    0.565, STEP:   565
H   19.457758   61.396389   20.896875
H   30.861023   37.622791    3.090985
H   11.325953   83.363350   61.356194
H   28.797792   80.772438   36.001026
H   11.759535   91.966324   48.985783
H   79.045776   43.993984   55.929806
H    8.067893   55.073532   55.941990
H   10.171695    2.920414   13.536276
H    0.627101   82.633904   39.791046
H   99.420624   70.346428   83.253166
H   23.521620    1.536856    3.231972
H   32.121719   50.697559   28.227772
H   19.150898   97.793938   47.971519
H   89.042496   54.578129   57.926662
H    3.930836   74.446457   42.178936
H   19.827255   12.575539   47.312069
H   99.496338   22.939856   99.652779
H   28.844824   98.790703   37.734329
H   75.838753   17.935816   47.268131
H   91.090225   75.241478   24.872112
H   61.985413   92.981972   10.950862
H   82.793694   61.236931   58.050468
H   85.272964   60.178444   41.338013
H   15.492091   91.022247   90.566986
H   17.372704   25.775011   33.813480
H   18.392061   76.759697   96.222565
H    5.189539   65.317986   62.149109
H    1.968953   83.536377    1.586440
H   24.756966   46.651192   36.435307
H   78.363029   29.470676   87.383606
H   12.937179   65.027290   16.592161
H   26.016037   71.123520    1.604723
H   19.270554   15.978808   77.148918
H   85.670250   63.932495   43.970955
H   32.392048   76.371750   31.746910
H   22.445049   42.511806   83.203247
H   95.592545   67.414345   88.394814
H   16.839308   53.162239    0.554798
H   41.041939   34.762833   51.655811
H   86.965950   38.352009   51.001068
H   80.601013   90.041679   12.311794
H   29.515917   36.291836   30.194239
H   70.850113   80.315994   62.396267
H   36.557236   79.018730   30.371861
H   39.881504   86.210884   56.092201
H   36.486256    5.380431   46.222481
H   86.098648   10.289618    3.304733
H   82.203568   65.545647   35.964005
H   99.649223   16.418865   61.400650
H   50.487053   19.268160   91.962975
H   70.476990   66.382538   14.988718
H    8.714498   41.291851   70.529106
H   60.941921   85.125763   12.176888
H   17.569605   89.042145   86.515976
H   63.442337   69.157036   80.262527
H    1.139385   64.343582   89.290466
H    4.502976   17.975319   46.168339
H   70.959396   66.134590   99.437508
H   21.323338   80.755692   14.986979
H   35.586525   94.164223   60.986275
H   49.366947    9.035568   32.741055
H   95.777367   17.194784   51.557480
H   80.400978   31.939075   73.920334
H   32.000481   65.616013   10.923824
H   76.572792   80.924118   31.219387
H   25.990784   29.187630   38.705124
H   74.035255   16.306643   92.549751
H   95.521431   92.188835   93.705994
H   28.082783   10.245156   57.866226
H   43.366142   47.294525   50.965237
H   58.322590   82.213280   81.974655
H   23.006445   15.279179   42.489838
H   87.808731   31.281765   88.612999
H   18.453438    1.820966   70.034157
H   83.102402    6.132573   52.331230
H   61.528519    7.602692   60.753735
H   94.053909   42.049175   67.548485
H   14.517669   11.888012   36.854179
H   14.001434   44.172874   27.740314
H   63.378815   88.854393   78.848724
H   57.161854   24.609219   96.308670
H   40.927132   62.745674   77.810081
H    9.731731   17.231277   80.770630
H   14.075836   72.486961    4.444011
H   27.334904    2.760581   48.571896
H   33.823460   74.403091   21.017361
H   50.421352    3.461337    2.516418
H   72.628777    6.448218   23.700480
H   75.633347   72.848274   78.341248
H   21.816303    0.614569   51.289989
H   27.619116   37.698410   79.308907
H   81.791595   91.386948    5.459258
H   62.698631   13.196699   86.473656
H   45.454292   82.757431   78.028580
H   33.360016   52.529953   81.475662
H   55.813057   34.975628   13.780860
H   83.714241    3.038056   12.326100
H   97.960388   33.488758   51.670696
H   29.653633   66.522377   54.033001
H   72.855331    3.208351   27.329752
H   24.366545   89.412292   84.243599
H    2.657449   81.573524   64.071884
H   29.916342   25.292542   35.044350
H   37.492531   68.539536    3.068603
H   24.907917   23.201702   35.624397
H    0.289521   10.860970   28.674854
H   81.053848   34.132256   54.746704
H   62.836227   46.752728    6.174390
H   81.055954   35.987232   14.847996
H   14.806891   23.529005    7.127898
H   51.470531   93.242569    1.024512
H   99.043846   71.518005   94.213135
H   51.449337   84.046059   86.866165
H   62.123253   12.390749   66.573090
H   53.004692   95.501968   15.377235
H    0.775072   96.289970   93.595985
H   19.212627   13.019035   87.968857
H   39.122211   42.993317   27.482079
H   31.204937   69.915489   67.477112
H   79.359406   53.161373   61.466534
H   43.946602   23.919125   76.870148
H    4.266025   19.781017   57.748081
H   40.071785    8.115418   33.670380
H   99.288979   55.623661    3.632966
H   67.191566    0.905219   82.064270
H   59.629162   71.244339   19.256256
H   87.308250   50.707413   58.503265
H   68.319794   90.118950   37.747440
H   96.467239   40.719429   77.483841
H   83.497795   22.608923   72.038452
H   61.728271   73.581390   15.831425
H   69.225372   89.274796   16.991283
H   91.376503   98.406845   99.792717
H   84.984474   21.335678   53.707203
H   20.481380   95.493607   41.482536
H   53.701958    1.209743   78.893585
H   69.430779   87.392693   71.517746
H   93.990486   54.073380   78.063217
H   54.808182   48.878654   71.473221
H   43.623993   93.502907   86.426956
H   66.707481   53.511227   25.408340
H   42.276672   50.885647   53.823166
H   44.557903   62.742912   88.422142
H   42.820885   14.763274   83.510017
H   55.578465   58.988457   59.695911
H   57.848186   67.575012   14.280773
H   52.417870   95.354530   44.954834
H   33.778122   61.320953   66.960350
H   73.873627   51.222996   94.713600
H   19.821978   92.223038   77.834724
H   64.764687   66.829437   48.890678
H   47.468304   98.116943   37.967564
H   91.273750   19.686298   92.055824
H   18.501143    8.602649   67.921249
H   26.500015   62.462013   66.632919
H   73.150040   44.334759   64.059761
H   62.713207   70.630318   84.604050
H   50.666714   31.445396   17.338221
H   97.507141    0.509750   90.552002
H   60.035973   43.683167   90.713226
H   57.148373   71.205765   74.774643
H   28.344788   21.372065   32.728443
H   79.208992   20.400030   37.096916
H   23.204308   29.727180   57.294056
H   55.842346   33.116177   13.017900
H   17.513147   54.098320   60.525223
H   69.303482   92.310310   55.667038
H   23.916122   45.719379   61.451893
H   98.489044   27.113300   36.089512
H   41.304401    8.007126   86.743530
H   73.156189    9.498822   35.948799
H   34.935524   53.375553   58.456135
H   43.952412   63.489349   81.279434
H   67.223938   66.764252   81.779594
H   56.332428   92.591705   83.949936
H   10.941531   49.416374   23.598549
H   32.079025   63.073681    0.503313
H    4.610407    9.510803   69.035934
H   67.290108   13.824276   65.333687
H   70.840515   57.941353   90.969696
H   75.484245   96.835876   34.162861
H   25.782986   30.502773   81.480827
H   50.671265   89.825294   12.505516
H   58.558521   25.821777   89.146690
H   89.725807   74.238121   77.057877
H    6.064183   38.966156   85.580788
H   42.668671   98.957642    6.466370
H   74.807304   80.991035   36.898663
H   97.206429   62.622704   70.257782
H   55.523586   56.505390   69.809158
H   63.345993   20.271763   76.980598
H   44.988636   93.761368   20.484774
H   11.319464   25.255892   65.251282
H   29.425671   76.501671   39.863022
H   73.741577   39.738792   20.753176
H   76.121597   11.180932   25.113714
H   11.621591   94.421333   14.436322
H   19.464252   90.946945   37.801044
H    7.579361   12.521271   63.481926
H    4.618032   23.981833   93.233528
