100
TIME:    1.744, STEP:  1744
H   99.383209   62.087631   97.549332
H   52.757729   99.301231   88.011284
H    9.732641   99.374947    2.862819
H   81.769333   60.797447   44.569065
H   79.550201   12.546803   18.417614
H    0.972217   99.318687   51.460361
H   61.565731   79.101265   26.835930
H   82.811333   39.479824   48.066261
H   10.757149   18.615036   90.308281
H   27.180399   41.424614   75.984093
H   38.032394   36.415974   71.757874
H   89.276093   11.108267   68.789253
H   32.326889   56.192986   51.789047
H   68.728966   99.700356   89.958855
H    1.712836   14.246223   66.941574
H   31.402527   59.194092   88.274185
H   83.852478   97.330490   32.142044
H   38.412949    9.889957   39.085251
H   72.425285   51.517731   55.241810
H   45.530914   68.776230   35.072243
H   60.785202   82.596741    9.909538
H   29.574039   46.401817   70.757362
H   62.459114   80.438377   82.451828
H   57.005028   57.598270   77.550110
H   67.208488   47.858681   49.429672
H   38.662281   75.641891   25.707529
H   11.691338   69.982864   34.574055
H   85.388199   37.843731   24.419279
H   49.092545    7.321544   74.732689
H   67.866066   47.676071   22.031418
H   84.705757   78.438232   71.407227
H   75.874451    4.329422   37.813240
H   93.202347   40.882530   54.910248
H   51.789635   13.895437   98.279922
H   37.421974   27.087257   30.925827
H   24.188938   21.483858   14.644334
H   47.071022   40.667824   45.885624
H   91.909050   27.033962   45.510067
H   72.317978   43.278740   74.973358
H   98.928474   48.916195   75.249161
H   16.058594   16.024290   83.432419
H   74.880402   90.129005   84.736221
H   26.262930   73.958191   27.444622
H   67.993111   42.000084   51.252628
H    5.376842   63.079052    5.348585
H   55.587521   96.180916   90.252419
H   54.495106   19.819193   42.525581
H   56.332554   13.339495   76.486778
H   16.010191   88.011497   74.906540
H   62.467052   57.294193   61.685764
H   43.411564    1.271191   71.805313
H   89.888573    1.908482   59.572834
H   45.056915   32.121033    1.580304
H   36.305386   78.752357    8.774866
H    1.919438   11.392954   15.205217
H   95.748367   10.699087   33.256927
H    6.814659   39.224770   21.856482
H   96.195404   12.188149   68.634109
H   27.822479   12.456475   77.596130
H   43.932133   61.838711   14.006200
H   69.713516   97.468819   78.419365
H   37.013184   11.711569   16.443184
H   92.526962   88.225258   13.913127
H   62.798019   51.281418   79.791878
H    1.543491   21.553383   57.977291
H   94.208717   55.573616   49.304241
H   47.644455    8.658355   51.263012
H   59.895775   17.278378   49.575886
H   43.823685   24.473602   50.852776
H   65.714172   35.861038   98.060760
H   66.652473   76.738869   41.230900
H   30.166636   93.644958   84.309471
H   93.279144   32.040829   17.029408
H   91.808281   39.015846   99.557457
H   46.256371   31.125204   33.605450
H   66.890953   19.346258   78.579979
H   25.298513   75.389389   21.891714
H   13.916621   36.684685   10.753671
H   45.148102   48.393406   37.136436
H   13.996550   13.971556   70.674049
H   45.010769   47.324139   84.223717
H   72.178024   55.617203   40.945633
H   28.145596   36.365479   96.007355
H   70.142586   61.397930    4.134804
H   67.411102   39.796364   78.691254
H   11.150890   73.116310   62.891914
H   83.632530   76.549911    6.703784
H   84.030121   65.665741   77.614265
H   91.874702   97.069542   13.931261
H   12.145069   37.522903   86.561409
H   95.394173   67.601089   70.291824
H    7.325410   26.671011   66.750542
H   97.182976   79.887314   53.835831
H   15.791527   19.018713   44.407288
H   26.439785   93.512207   56.161613
H   37.968857   26.862062   77.368988
H   24.171719   67.765083   36.890320
H   13.268516   31.086792   28.132164
H   25.632217   44.367992   98.965042
H   47.549667   33.906521   29.713966
