100
TIME:    0.519, STEP:   519
H   82.224770   74.426399   98.670853
H   86.833275   32.884121   10.738652
H   88.681580   11.243068   17.245956
H   81.563721   11.266932   11.714612
H   90.522415   14.357659   51.632729
H   19.968334    0.648782   30.143606
H   25.770134   96.382210   31.039248
H   79.093918   33.501972   60.542152
H   40.869987   36.393738   67.419151
H   60.657127   23.837597   28.013369
H   51.978912   87.125732   89.756752
H   36.031986   49.705406   55.985878
H   10.249295   30.307312   73.543968
H   29.383945    3.477071   96.735374
H   86.814842   23.664545   25.824087
H   80.655991   66.342720   89.958481
H   82.339729   16.319290   20.608656
H   12.235116   69.461655   81.553513
H   53.345955    0.124205   90.706161
H   78.600533   94.650360   51.595253
H   33.478348    4.548633   43.156395
H   12.113009   44.784958   75.064278
H   78.814629   90.401222   17.500629
H   70.820801   42.906345   68.530396
H   11.021597   45.013912   40.391129
H   44.279232   12.145259   40.527466
H   17.324438   20.902428   10.265089
H   88.749352   80.664352   83.929733
H   22.456421   96.180016   32.638123
H   20.894136   77.994522   24.647350
H   36.517735   68.583977   68.342552
H   98.527466   38.171997   51.217644
H    6.914927   30.509256   44.552574
H    0.030724   26.159332   49.886269
H   67.871269   19.687912   56.330811
H   17.680157   25.255911   18.858526
H   29.578194   85.528664   49.360424
H   42.538597   49.455036   59.064610
H   27.387535   69.428871   92.382751
H   14.309788   63.597157   78.868462
H   99.774780   73.987938   54.568890
H   84.976402   35.150879   27.183508
H   15.711350   66.612228   38.961029
H   46.217407   21.469301   31.476955
H   11.636433   11.414811    0.519250
H   71.322975   72.960747   85.353554
H   41.560230   53.739086   32.058052
H   56.267132    0.726931    0.690745
H   80.200249   89.465927   23.770464
H   36.774876   38.648907   47.364624
H   43.505024   19.537539   58.889133
H   30.354628   15.579288   39.990967
H   19.645121   25.018066   72.728340
H   64.670303   98.734123   54.718281
H   99.441315    4.002697    4.810120
H   94.215622   11.986500   74.958817
H   29.154144   74.571373    5.348625
H   87.413025   27.873817    0.186253
H   31.209282   60.697678   71.640442
H   24.770287   67.680893   48.847984
H   92.439255   54.433807   73.929688
H   80.490814   23.114578   71.873032
H    9.435900   71.761559   97.952492
H   78.678658   44.617714   13.048643
H   52.923264   19.392170   43.894829
H   69.462379   16.472065   76.873192
H   45.928581   66.303467   92.119064
H   44.514977   47.219650   91.013802
H   82.769341   12.494286   27.681477
H   40.899872   74.248680    0.639385
H    5.551078   60.091518   55.922825
H   31.173433   34.301018   94.620094
H   73.151917   92.635414   48.441341
H   18.767357   16.536016   72.362892
H   87.194870   29.382174   40.741993
H   37.928608   40.835770   61.006306
H   14.076446   81.561394    0.217763
H   56.363892   16.784233   43.103161
H   86.429451   51.982273   23.475491
H   74.072769   80.689110   76.208893
H   21.038258   34.650951   11.008270
H   80.264488   47.617020   43.380745
H   50.634159   15.920079   79.332092
H   85.872223   56.573093   16.025215
H   27.058939   16.419441   97.441338
H   39.347797   28.117580   77.824135
H    1.817556   65.617393   48.291058
H   64.310043   63.741600   90.344749
H   66.453560   65.275032   23.954372
H   20.449581   87.930359   42.766018
H   45.262180    1.456837   44.422070
H   16.687700   34.539406   43.412460
H   18.583843   43.181496   59.066124
H   97.390511   44.714226   61.810833
H   47.619068    3.239969   28.012100
H   36.788879   75.236504   40.642021
H   21.406569   97.464912    7.340688
H    8.770749   20.656647   47.731667
H   83.988182   39.087498    1.578338
H   71.473129   65.374123   47.699081
