100
TIME:    4.839, STEP:  4839
H   90.080971   78.260414   94.715775
H   66.833900   67.083603   83.220520
H   62.932678   22.040825   66.544701
H   82.288818   33.284416   74.921883
H   51.828568   60.624695   34.498566
H   52.984943   95.965645   57.969288
H   99.359093   88.089874   68.869110
H   39.550438    7.237566   63.894054
H   34.676079   21.043396   95.488625
H   42.602516   85.864235   97.178192
H   50.143036   60.950199   73.631897
H   71.151222   66.244728   48.483452
H   35.280441   68.966301   44.194580
H   15.482615   90.160713   25.489985
H   39.361015   37.788116   18.165524
H    6.957747   88.492325   31.362213
H   34.983620    2.033940   13.901609
H    4.546764   59.367039   31.780737
H   20.637463   81.355606   18.300058
H   62.143311    3.054403   45.794228
H   77.123604   74.480072   25.905834
H   26.299988   50.507828    7.192697
H   21.136406   55.266945   93.899963
H   69.445953   94.716766   47.687225
H   56.513458    2.401787   72.276955
H   24.487429   83.603897   35.380672
H   44.806717   41.325809   95.979103
H   24.241344   82.307877   26.723345
H   16.390846   88.124138   28.429436
H   86.542450   71.074364   68.075233
H    6.499372   55.977337   26.532661
H   71.294655   18.816750   51.293571
H   11.209503   14.438150   33.732292
H   82.560471   30.257172   67.891823
H   60.486969   93.128677   19.390038
H   93.283966   64.439919    4.213778
H   43.921913   27.321762   89.759689
H   63.985043   70.399162   63.914921
H   40.817432   75.984062   75.377335
H    7.414087   59.173103   18.756407
H    4.540792   22.221807   56.350445
H   96.718712   29.034304   30.139872
H   52.921978   92.517990   50.999306
H   70.356110   93.865295   53.867416
H   36.908398   40.968658   70.196800
H   15.657927   55.213337    2.818906
H   79.539352   87.998680   71.916512
H   56.497845   45.210098   67.987831
H    6.481098   31.683674   51.445595
H   27.366016    4.384024   45.217606
H   43.175434    2.468895    4.437647
H   40.298210   14.715971   56.391724
H    9.246772   50.066895   21.827013
H   64.628349   28.251099   45.347557
H   55.506744   82.668953   41.505596
H   99.620895    7.443564   27.895828
H    3.024383   49.919502   16.216759
H   65.733536   19.903814   88.913071
H   71.917580   43.229080   39.990433
H   39.694355   99.728745   25.977913
H   64.948517   53.534946   37.109146
H   27.169580   82.901352   76.405716
H    2.579588   77.078293    1.645699
H   75.325783   68.123245   95.758926
H   24.389921   74.361877   46.204319
H    4.078533    1.712119   32.302773
H   99.325989   15.659945    0.688386
H   46.103004   94.284256   97.534782
H   98.076035    2.086652   56.740173
H   28.424795   91.529785   91.543579
H   68.372383   66.154434    4.099519
H   74.968842   90.927811   10.910285
H   91.479080   78.949104   37.676971
H   23.683506   43.158260   15.636623
H   95.479500   35.538486   68.227020
H   40.055832   17.706823   70.325150
H    6.304405    7.133583   76.628777
H   59.325344   34.309818   81.679955
H   93.561333   39.305058   71.674355
H   62.211487   45.411770    4.037109
H    5.563720   79.343338   69.204643
H    4.400617   75.829910   82.143089
H   23.951937   88.044495   90.785477
H   83.065018   26.242952   21.449402
H   16.709890   46.203262   78.665672
H   39.922802   86.799187   77.817993
H   90.340584   51.518204   54.285751
H   33.845917   17.872614   45.419800
H   56.106796   24.744219   88.614021
H   38.505993   10.184799   97.200882
H   22.054527   34.724094   35.652630
H   36.335896   59.418243   25.731153
H   95.642906   72.715294   93.211838
H   14.935042    6.753338   53.086704
H   72.927361   16.281052   27.280693
H   93.603119    4.645310   17.508553
H   78.505424   45.380856   58.893677
H   24.627775   57.438873   78.600731
H   78.194366   57.709324   39.720360
H   39.779476   54.455151   31.583937
