100
TIME:    5.972, STEP:  5972
H   13.460608   74.359367   93.678482
H   35.542244   28.477613   54.660160
H   82.416016    3.554031   53.243076
H   82.478989   86.603302   12.816737
H   41.680389   51.439560    3.780535
H   35.411480   94.738182   70.174217
H   39.977596   64.597084   57.471256
H   50.498871    5.256503   59.865582
H    6.824776   12.110015   24.170412
H   11.644289    2.132612   41.545689
H   44.754135    6.539009   64.495262
H   27.906197   23.035892   67.835594
H   62.981186    0.451142   31.613701
H   59.383003   86.668495   11.711285
H   53.139717   36.584061   63.705669
H   61.402771   89.395973   37.313202
H   43.874458   76.971565   17.043066
H   28.775320    4.241409   92.505409
H   38.282864   28.885965   77.989624
H   31.620979   78.989784   22.934107
H    9.889763   61.686771   95.153770
H   34.921799   52.011902   10.707275
H    6.007939   46.052330   61.484573
H   64.174095    8.270723   63.541897
H   15.991607   12.549782   80.644447
H   19.322577   50.113052   28.837807
H   47.106995   94.227493   18.459715
H   28.642063   35.192467   64.178207
H   41.026543   90.918793   74.872711
H   29.985481   43.032890   58.145340
H   51.092293   57.575581   36.893303
H   42.832890   87.512177   46.406090
H   91.016594   31.541872   35.801880
H   30.433552   26.424461   20.160154
H   32.324478    7.481873   88.381683
H   91.773651   53.181557    0.650353
H   52.591003   85.827271   79.035622
H   17.159584   49.664623   43.868458
H   92.991455   51.296501   65.581123
H    0.698177   53.105213    7.898542
H   27.107376   61.094345   83.043434
H   96.926239   65.022339   84.840385
H   62.681171   99.312256   32.838211
H   98.012222   12.882711   64.645470
H   38.629009   96.268539   67.150497
H    1.037744   76.823593    7.423102
H   88.390915   49.615982   82.790794
H   56.558353   56.879639   38.091419
H   39.596710   37.848541    6.247573
H   51.128658   21.629011   65.973312
H   43.091526   93.085114   16.381569
H   95.361153    9.582142   82.011391
H   32.749470   56.636414   56.025585
H   38.393288    9.762090   95.345055
H   65.295433   81.962723   51.143772
H    1.033878    6.251759   89.325821
H   74.849937   17.227501   23.974464
H   81.368317   12.905760   59.730576
H   61.274590   91.100304   53.011192
H   64.926987   86.815720   93.752708
H   36.419422    0.847198   48.771137
H   86.959969   72.355545   25.139626
H   79.500084   99.764076   23.952484
H   53.126953   74.295135   65.003204
H   69.363434   83.870712   51.715565
H   34.476433   45.387199   99.294579
H    8.423470   54.828167   55.390640
H   67.838844   59.082493   51.698734
H   54.547176   20.676491   85.679199
H   51.375565   48.517113   89.157806
H   32.395622   89.065872   90.509895
H   81.548111   53.325958   93.863541
H   17.605724   22.907074    8.624138
H   98.744743   71.450157   48.317223
H   50.104366   37.154934   54.116348
H   66.842995   90.321953   94.089966
H    9.173480    8.932394   96.665810
H   12.555751   60.227180   44.251640
H   47.891071   35.977077   84.312035
H    6.652822   83.696266    6.428063
H   27.734949   91.064743   36.920994
H   89.427444   83.200073   87.382927
H   95.616386    6.991851   98.685989
H   61.012558   23.196163   17.967564
H   61.542412   75.333717   68.833984
H   13.843540   28.414856   56.497040
H   66.011101   69.139732    8.311529
H   52.075188   27.187819   33.657425
H   79.618759   61.660728   79.347542
H   38.333630   63.573818   37.701874
H   68.421501   95.902924   59.579510
H   20.166422   44.630508   47.315483
H   68.270203    6.707838   80.828506
H   24.438503   75.487495   29.481722
H   53.339821   14.793774   53.315952
H   87.184280   59.903717   58.987381
H   88.573326   10.401458   93.733887
H   26.749987   81.952621   58.991676
H   24.220581   62.593243   44.820038
H   10.155836   25.384045   22.438618
