200
TIME:    0.369, STEP:   369
H   13.435110   62.046871   17.545397
H   29.114067   34.761417   95.134064
H   15.433897   74.784462   51.702141
H   22.190912   78.481544   41.126377
H   13.840517   86.998734   51.803791
H   85.421997   49.313732   61.731060
H    5.228202   55.212601   52.148258
H    5.779445   94.456909   20.493378
H   92.667328   85.572289   44.572464
H    6.320164   73.091911   90.984184
H   16.690062   97.349922   97.038193
H   31.311234   45.466038   18.888866
H   14.340320   91.289116   56.004601
H   98.306259   53.751194   48.481960
H   13.393709   72.937637   42.661190
H   25.540283   20.651237   51.540203
H   90.275940   13.760206    9.168898
H   33.498882   89.368431   41.223755
H   69.317482   25.031679   44.382832
H   90.466660   77.933128   32.470043
H   59.633209   83.197823   19.930401
H   87.157158   53.745171   65.603539
H   91.142258   61.603523   46.040924
H   11.340594   89.235291   91.181580
H    8.853474   17.892214   40.807285
H   18.554308   68.061180    2.695982
H    1.393817   61.385181   54.268555
H   97.470734   75.450958    1.070704
H   16.501823   52.608711   37.582996
H   87.220055   24.220089   94.163574
H   13.193072   56.838688   16.352530
H   29.580231   66.529770   96.779114
H   24.006363   11.761329   74.754845
H   92.157127   63.718658   40.545082
H   41.797871   84.470627   33.237850
H   28.847439   46.980694   80.955719
H   89.966995   71.644722   86.923378
H   26.534109   48.092216    9.367353
H   48.295937   41.781311   47.299076
H   88.845619   39.158009   58.657318
H   80.542694   99.197777    5.806069
H   19.760180   40.401836   36.006077
H   74.379166   84.818527   55.118343
H   36.993881   69.499260   23.361980
H   33.184528   80.230934   49.019142
H   39.244450   10.481296   44.090843
H   82.405106   19.892193   99.007576
H   86.975266   65.548637   43.010147
H   92.069237   23.856792   61.259338
H   57.501045   18.383654    0.254770
H   75.139526   68.863342   22.756348
H   16.206823   37.918316   66.315178
H   55.655392   90.730530    9.615870
H   20.486681   84.905975   83.613480
H   71.738602   73.516014   86.601364
H    3.651966   69.172104   82.872375
H    5.062335   17.233620   48.270817
H   68.818039   61.578228    2.975150
H   25.459133   76.969437   10.246496
H   40.119713   95.264809   64.609535
H   50.001728   12.859581   38.467541
H   92.254463   16.730474   50.054802
H   75.001228   27.878796   80.532822
H   27.251585   65.336380    6.547680
H   73.422066   78.002182   23.204624
H   33.679478   21.572876   35.182053
H   81.356544   20.440943   88.500313
H   96.619026   91.743217   89.825531
H   21.111034    7.596498   60.347031
H   44.494392   43.878372   50.975704
H   58.408573   78.823296   76.731918
H   28.514982   20.431046   43.861832
H   81.588028   27.893276   95.176140
H   12.067986    6.129194   64.327858
H   80.715805    2.959790   61.547142
H   56.574387   14.522295   62.034512
H   94.882339   34.752560   70.320885
H   21.777235    8.318958   43.556389
H   12.511307   35.440712   32.081348
H   66.332314   89.947502   88.143890
H   48.843159   27.921818   99.218643
H   32.308617   66.270508   83.869286
H   10.496422   15.081323   86.505341
H   20.467384   66.077843   98.056000
H   34.314503    0.687962   54.126415
H   28.301588   81.260818   25.097454
H   41.636852    3.052917    2.067061
H   74.258720   13.743152   16.307787
H   69.633957   72.371208   77.635429
H   22.798008   91.829285   53.446301
H   35.835178   36.006409   80.180702
H   83.156860   89.667282    1.182613
H   53.387764   15.407217   92.055840
H   54.243279   89.799088   72.646774
H   28.393648   55.181229   73.312485
H   63.929878   30.593472   22.996353
H   81.055489    9.817339    3.884928
H    3.348404   30.443262   49.814953
H   34.094856   68.485786   53.338406
H   69.447403    0.023710   27.281900
H   15.621679   83.993103   75.014229
H   95.369255   78.608223   65.153030
H   25.853445   32.455673   32.305595
H   28.074589   68.177658   95.285088
H   25.167736   25.777462   29.269859
H   92.530075   20.457077   37.851276
H   71.769150   31.698553   55.658875
H   63.991394   39.227322   13.753419
H   76.074905   38.461308    5.370396
H    8.510673   26.261778    6.168623
H   48.891781   94.945786    0.886612
H   91.173759   66.589294   91.980560
H   54.853527   81.771614   91.129440
H   62.787193   16.616266   71.627411
H   59.545403   87.340286   22.249559
H    8.773928    2.023444   84.753914
H   27.271130   10.259159   85.683945
H   40.116627   33.345993   31.399925
H   23.761402   62.556820   77.164062
H   74.186951   49.249508   54.154964
H   41.900948   22.616665   83.292725
H   12.723000   24.424114   51.982716
H   35.346443   16.381954   27.855934
H    2.176684   62.676533   12.216105
H   73.056374    5.758104   88.546661
H   52.448437   65.881973   23.040642
H   92.180138   49.792252   66.072784
H   72.606995   88.581718   36.092075
H   94.055222   47.814171   81.950485
H   73.997765   23.537916   68.699310
H   53.816315   80.579681    8.341160
H   76.748535   87.330826   12.369123
H   92.016518   88.870926   98.334740
H   94.595161   16.310469   51.295086
H   10.798815   99.037613   50.489098
H   58.922264    1.461291   81.781128
H   69.106285   86.893242   61.760513
H   92.318672   60.193146   81.160110
H   49.685074   46.137657   71.519577
H   43.517822    2.902931   91.873062
H   57.004078   59.275097   19.076981
H   51.299683   44.930370   49.254089
H   50.858608   59.135353   95.033134
H   51.802025   21.858049   80.262093
H   46.365543   65.488792   53.286793
H   50.666714   64.198486   23.667904
H   47.782249   96.212868   46.358231
H   39.130020   68.616821   68.084862
H   68.633881   59.406361   96.662056
H   13.574058   90.083176   85.169472
H   71.673256   63.500759   50.370338
H   39.217648    3.540341   44.109760
H   82.168495   27.015064   98.935982
H   13.319993    4.103748   72.764725
H   18.727875   57.285820   63.087223
H   67.331589   43.848766   58.029713
H   60.661572   64.752052   82.283249
H   47.880108   34.590141   12.746340
H    6.477743    1.248264   97.820953
H   62.233406   51.680359   83.191559
H   55.223095   79.168564   79.985977
H   37.547390   22.387789   34.426426
H   70.772163   28.945646   37.178413
H   16.009750   23.969292   65.679443
H   57.719025   26.465555   11.092061
H   14.136247   60.334724   61.596649
H   72.678513   95.480476   53.589233
H   23.744904   36.801792   53.347034
H   95.825806   27.750698   36.552326
H   32.359898    9.486225   88.950684
H   76.900574    7.167928   35.965248
H   41.706520   60.655720   57.854252
H   40.165409   71.911270   86.794327
H   69.637543   71.452255   77.232239
H   65.442169   94.066132   93.165848
H    4.890178   48.357658   23.410507
H   34.092529   56.950924   92.304291
H    2.873295    9.323883   66.529709
H   72.302559   18.380732   67.626076
H   80.164093   55.838875   88.204773
H   79.062645   89.812164   38.719975
H   21.829624   30.263515   74.325523
H   59.696175   90.031906    8.623193
H   54.290012   25.459152   81.936058
H   87.191170   82.739250   77.865372
H    1.961005   37.312286   84.599831
H   35.843842    2.314895    2.123446
H   84.223595   72.688789   30.040297
H    2.882631   61.748665   68.017731
H   51.959393   57.571583   67.332840
H   53.982788   26.756397   78.380257
H   46.595402   88.434891   22.981279
H    6.965884   20.592981   60.761250
H   32.849766   68.679436   35.913025
H   80.467712   48.493385   21.394312
H   75.643082   10.699986   27.799009
H   10.318757   89.076912    7.820844
H   25.160458   94.842361   43.328648
H   10.193066   11.972847   72.247734
H    6.662284   30.622358   95.956581
