100
TIME:    1.678, STEP:  1678
H    3.846435   68.140182   97.609756
H   54.593636   95.723076   83.848015
H    8.598166   94.626564    3.637641
H   81.758255   63.516563   48.187000
H   80.141357    7.256612   20.206944
H    1.995710   99.390190   44.923908
H   65.024696   74.644936   21.674644
H   87.998802   33.770184   54.126366
H   12.379555   24.960648   94.462486
H   28.983828   40.476952   73.399925
H   44.171555   33.760303   78.115570
H   91.794800    7.800134   73.487282
H   36.524902   60.186058   58.348663
H   71.996941   99.903786   84.936546
H    0.909970   20.141457   70.113876
H   34.056183   64.967094   93.752701
H   89.158783   92.965805   26.133055
H   37.002533   13.099648   41.373337
H   71.397057   48.748764   51.764866
H   47.308914   70.178085   30.578653
H   64.701736   89.166931   11.700882
H   23.245548   46.314705   76.376869
H   63.340309   80.975151   84.340103
H   63.137138   56.806705   82.451569
H   69.569084   53.092979   48.942749
H   38.964909   77.608719   31.893770
H   17.382599   72.726151   33.264347
H   90.957352   34.763073   22.237692
H   47.657455    1.333586   77.852623
H   65.335274   49.309555   16.784782
H   82.109505   72.519623   76.629944
H   71.707153    6.152803   43.923195
H   88.553665   45.711479   48.964447
H   49.001030   19.943916    1.060408
H   39.062508   32.076332   26.907074
H   18.450344   16.299158   14.871179
H   40.741020   43.084816   40.685062
H   94.637230   28.241955   40.852825
H   75.284836   44.687645   81.298828
H    5.144953   55.095135   70.056656
H   20.568802   13.759620   81.877487
H   80.812103   87.167183   81.635422
H   25.694433   73.562408   22.677357
H   72.207741   40.893806   44.799763
H   11.101841   65.683182   99.700638
H   56.439007   94.922066   89.984535
H   53.798206   16.258661   41.961617
H   56.329029   12.659967   72.403069
H   14.081128   93.477928   77.539047
H   61.082821   56.289631   66.301964
H   43.416599    7.643225   71.109421
H   86.681023    8.032850   63.905796
H   43.687790   31.738342    5.413521
H   37.833630   79.828926    5.862642
H    7.173765    5.607001   14.645155
H   95.665787   10.768450   35.503723
H    2.630619   41.129158   15.579344
H    1.109933   18.421143   70.334061
H   22.617386    9.667745   82.662750
H   48.287251   56.765545   15.883271
H   65.550247    0.538329   83.565544
H   39.355652   12.326014   19.429680
H   88.050491   92.725899   18.441017
H   58.265656   50.922394   81.583473
H   98.923912   26.824692   51.830578
H   98.263222   58.854683   45.401806
H   52.939682    6.376644   48.076611
H   64.454826   13.503591   46.420704
H   40.534058   29.215942   54.992378
H   64.376770   32.541199   98.199738
H   68.748207   81.229439   42.022465
H   35.608479   95.835358   79.477501
H   97.582397   35.305279   18.721806
H   93.260490   43.192711    3.480060
H   43.074501   31.031294   28.602104
H   65.330986   15.116270   83.021202
H   19.306135   81.109604   20.724257
H   10.815822   41.000526    7.108654
H   41.984360   48.586765   36.400261
H   17.233383   17.566076   76.360023
H   43.719189   46.641338   80.278984
H   67.226212   55.186172   46.464432
H   23.969738   35.263733   89.721161
H   65.602669   55.750225   10.163185
H   70.624695   43.924889   85.089233
H   12.670071   70.692268   58.308693
H   79.224541   81.348648    3.556592
H   82.967651   70.949890   78.301094
H   90.505074    0.744345   14.471182
H   17.980427   40.238495   84.201820
H   92.693184   64.037033   68.898026
H    2.442005   21.707365   65.492699
H   92.948204   77.909409   48.729935
H    9.412304   15.015317   39.957504
H   27.581059   99.423767   54.644951
H   32.517532   29.468134   80.777954
H   29.410297   63.977459   40.686005
H   13.026187   30.524841   29.188339
H   28.776070   44.083492    4.493547
H   43.450851   35.601940   36.070747
