100
TIME:    4.512, STEP:  4512
H   12.194386    8.247965   95.015152
H   75.865120   49.363388   62.603226
H   57.311867   98.515892   70.381721
H   82.233932   46.756401   92.844612
H   54.757477   34.414200   43.365128
H   58.056896   96.319908   25.584379
H   16.496807   66.010788   43.297283
H   65.251991   78.946930   93.916634
H   42.714363   52.483017   16.072283
H   51.538933   81.168999   84.374817
H   80.559784   47.792561    5.131172
H   83.630272   49.853813   71.760048
H   56.147049   88.740181   76.687012
H   31.672718   91.168617    0.604253
H   35.384285   66.997375   33.884235
H   20.106628   17.093193   58.505798
H   61.278938   80.404099   84.133507
H   97.554970   75.278221   43.117138
H   15.544304   67.639130    1.073283
H   70.954460    9.998713   23.530527
H   96.528252    7.032873   34.780739
H   94.950180   50.073730   35.039780
H   25.502327   57.926414    3.255729
H   99.827774   90.796021   71.973404
H   68.209137   28.335358   69.861977
H   25.978079   93.268799   66.129402
H   73.004784   54.920040   89.492592
H   51.831821   67.044617   15.913329
H    9.280042   58.455837   43.887001
H   74.003525   79.167534   42.079292
H   93.630226   26.655582   52.403862
H   50.647594   27.850464   81.565620
H   88.176491   38.362480    4.273549
H   68.744202   60.224854   81.668175
H   68.615067   17.847679   99.478867
H   64.858078   38.828175    5.242576
H   12.558859   39.297348   63.993275
H   77.501930   76.381721   40.840405
H   54.621227   83.109245    7.066212
H   38.213539   89.784843   93.028992
H   26.888119   11.002637   48.646465
H   26.108292   14.358409   14.779078
H   50.105335   90.557068   27.380678
H   91.237686   88.385590   21.894537
H   65.272026   53.869331   42.214985
H   19.876705   48.976307    1.489609
H   76.984665   70.215660   68.778038
H   56.480381   41.842102   47.754906
H   96.922470   58.764858   64.490875
H   20.507778   99.407173   68.087990
H   43.200382   34.039406    0.990441
H   24.406855   45.059658   77.857971
H    2.463783   48.170837   40.819347
H   72.202599   33.587502   30.917660
H   81.542603   54.009418   38.723881
H   99.211746    7.787537   39.027679
H   82.292770   59.354881   85.116127
H   90.082901   50.785088   97.335556
H   46.127945   29.412579   65.095619
H   61.271984   74.596008   35.278572
H   44.321411   68.741600   62.603630
H   38.774925   85.945023   91.199951
H   80.380592   99.391891   24.069084
H   52.871239   66.341949    4.636768
H   11.410661    0.477598   15.751979
H   24.165657   17.967781   12.968041
H   25.562574    4.355228   84.901169
H   68.691032   75.583145   81.902290
H   81.779922   25.582779   77.248413
H   21.799822   75.083984   92.232147
H   78.755791   88.403168    8.022301
H    1.932645    1.780305   86.969475
H   12.800406   95.125465   46.062035
H   30.882595   63.852726   35.065758
H   79.712288   35.071957   43.438564
H   32.324409   96.749229   92.329391
H   76.615829   35.476048   70.845802
H   43.962292   55.692852   63.622452
H   77.878944   40.265560   68.026939
H   78.248138   63.222233   32.208305
H   99.165146   75.960373   49.660290
H   79.866280   73.694351    9.486643
H    3.267521   82.575867   59.644886
H   60.567184   98.260323   51.314796
H   32.632980   66.657906   10.364568
H   47.449650   74.789162   55.110214
H   68.500999   75.293762   38.693176
H   28.582674   44.052498   48.820229
H   49.320908   42.950859   91.288460
H   67.418076   23.639320   85.510193
H    8.672355   17.067253   28.746988
H   12.139754   34.825958   19.500826
H   74.681496   62.900986   67.924423
H   83.329819   86.919083   31.039995
H   78.580605   45.572639   19.767567
H   66.594284   17.557678   34.398430
H    4.461343   26.614880   77.699570
H   23.427771   54.654663   83.834846
H   93.771973   56.299755   67.110619
H   19.469210   62.845203   63.085911
