100
TIME:    8.023, STEP:  8023
H   74.759514   86.273918   91.800735
H   78.901108   39.619068   83.981339
H   17.678949   51.110443   29.161900
H   82.823242    2.101936    0.393907
H   23.306067   15.836080   48.168259
H    3.600848   92.516182   73.291237
H   32.485119    3.088106   17.862217
H   89.294312   82.693230   71.549263
H   56.407219   14.914138   95.067474
H   55.623238   31.583391   21.852627
H   53.975113   89.065552   66.932663
H   49.627037   25.841915   21.842976
H   32.149742   76.363861   27.803591
H   57.830086   80.346748   67.794960
H   78.053352   53.378922   65.073517
H   78.935501   10.008108   67.061798
H   78.945045   12.630621    3.753697
H   72.633270    4.439913   21.409615
H   70.223251   14.926976   86.044785
H   76.361588   35.436329   62.575752
H   88.180534   57.503101   39.485477
H   31.553164   54.734634   36.045700
H   78.623589   29.372915    2.801980
H   73.606186   32.806610   11.215674
H   42.635201   49.896896   95.791603
H    9.778271   89.585434   35.882263
H   70.247528    8.969489   59.159870
H   55.583549   30.926214   31.969469
H   85.623024   77.001419   77.920830
H    8.631084   92.269913   21.193939
H   31.810423   41.493515   74.624855
H   72.334435   30.844685   56.534767
H   35.486065   81.481743   20.572157
H   17.092525   38.462563   33.754196
H   81.285301   52.216331   13.177080
H   70.063416   13.824716   94.203102
H   49.308720   10.715189   40.646267
H   32.387451   12.125744   88.602440
H    6.417325    6.610579   66.824043
H    7.516884   61.097801   69.268494
H   86.936676   31.471083   31.362883
H   24.079323   73.065353   89.548759
H   80.333160   11.615431   80.982796
H   67.046661   47.308067   65.180817
H   60.719032   15.347040   42.660065
H   74.561882   15.940448   15.755602
H    4.417042   61.156258    2.477430
H   56.677303   78.004288   64.995323
H   99.553047   67.984322   24.432716
H   94.184814   52.848629   22.563900
H   42.950695   95.074272   38.001297
H   95.045929   19.263628   47.376953
H   75.291924   68.528809   36.908577
H   90.898956   76.303467   85.849686
H    1.991264   61.703217   68.587051
H    3.588396    4.094306   19.504944
H    4.876199   58.046196   19.041649
H   28.646338   19.214014    6.900262
H   23.031178   77.769142   95.560226
H   29.583672   44.463146   35.417381
H   65.797623    5.465639   88.859993
H   14.165993   53.265121   32.338608
H   18.741615   59.808014   83.309265
H   93.964592   85.467728    9.313119
H   50.770622   20.060305   42.716309
H    8.483059   43.426170   20.566730
H   43.868500   25.738861   54.412884
H   26.162422   76.381096   49.748398
H   56.768822   73.304726   57.045387
H   92.967705   51.617680   84.826950
H   67.266029   49.517563   65.911415
H   12.593184   85.204491   44.128521
H   83.876251   21.462088   56.042240
H   53.588551   41.643871   26.453756
H   48.946762   40.128643    9.610884
H   15.324107   21.771454   56.082298
H   95.442101   31.389526   33.030067
H    8.914531   26.118725   57.521282
H   46.244301   29.952641    7.192974
H    6.070227   71.968529   29.732491
H   67.878624   12.283975   59.506668
H   43.335670   96.500916   15.800343
H   25.346792   41.291050   94.012573
H    2.119439   98.704346   30.640171
H   61.676880   47.033222   70.013161
H   66.645248    3.751200   98.924530
H    2.992826   20.015022    6.110917
H   85.060936   63.066803   12.391945
H   22.184723   47.464119   62.573006
H   56.998569   79.188614   11.020702
H   52.356922    6.651056    2.892980
H   71.919655   98.886078   86.397224
H   99.743393   68.249901   39.435486
H   22.658125   99.919029   67.777351
H   17.878590   31.078201    0.447349
H   56.588501   78.912720   53.050591
H   25.774157   28.102287   75.778511
H   22.791071   83.437294   17.819387
H   26.515648   71.447456   73.027641
H   37.550365   72.748611   24.858944
