100
TIME:    1.401, STEP:  1401
H   22.578329   93.542557   97.863358
H   62.298882   80.705666   66.374901
H    3.836769   74.697746    6.889741
H   81.711761   74.928612   63.371365
H   82.622421   85.053856   27.717415
H    6.291280   99.690285   17.491171
H   79.543358   55.940945    0.012794
H    9.770462    9.806858   79.559151
H   19.188744   51.592987   11.898639
H   36.553398   36.499641   62.553970
H   69.937424   22.614536    4.798422
H    2.366189   93.915764   93.204765
H   54.143837   76.944862   85.880852
H   85.712532    0.757759   63.858059
H   97.541069   44.882862   83.427933
H   45.193497   89.194450   16.745590
H   11.429068   74.647354    0.913545
H   31.083061   26.570206   50.976364
H   67.081612   37.127495   37.172237
H   54.771126   76.061630   11.719187
H   81.139313   16.743050   19.219097
H   96.684746   45.949097   99.961769
H   67.038658   83.227974   92.265137
H   88.873421   53.484531    3.023095
H   79.476433   75.062233   46.899147
H   40.235027   85.863434   57.856186
H   41.269058   84.239639   27.767546
H   14.329712   21.833645   13.081637
H   41.634430   76.201752   90.946892
H   54.713619   56.165237   94.764488
H   71.213112   47.679398   98.549530
H   54.217136   13.805680   69.566490
H   69.043289   65.978432   24.010099
H   37.297340   45.329384   12.729631
H   45.947777   53.015327   10.040489
H   94.365906   94.539322   15.823592
H   14.173486   53.228859   18.858465
H    6.086464   33.311863   21.306522
H   87.736649   50.600777    7.847161
H   31.235220   81.026573   48.262341
H   39.498009    4.254967   75.351486
H    5.707298   74.736504   68.621460
H   23.308470   71.901321    2.669570
H   89.896416   36.250793   17.716722
H   35.129349   76.613388   75.997391
H   60.012669   89.638710   88.860237
H   50.873341    1.315620   39.594673
H   56.314236    9.808012   55.263866
H    5.984848   16.418922   88.587601
H   55.273243   52.073513   85.677086
H   43.437733   34.386421   68.188782
H   73.219032   33.736446   82.089005
H   37.941612   30.132202   21.501339
H   44.247623   84.347252   93.639542
H   29.226280   81.324402   12.294590
H   95.319199   11.059563   44.933456
H   85.068985   49.121819   89.234123
H   21.736229   44.580757   77.468704
H    0.771747   97.963577    3.927402
H   66.565842   35.473621   23.761803
H   48.077129   13.419679    5.163515
H   49.186920   14.904819   31.963913
H   69.262878   11.615490   37.444191
H   39.243462   49.415581   89.102745
H   87.930305   48.949024   26.033255
H   15.279480   72.625221   29.023405
H   75.163589   96.799866   34.703381
H   83.589027   97.661179   33.178501
H   26.727592   49.119400   72.365150
H   58.765701   18.608950   98.783020
H   77.543938    0.076234   45.344639
H   58.447369    5.028688   59.197365
H   15.643848   49.006077   25.824749
H   99.355370   60.722885   19.943001
H   29.720112   30.637156    7.602883
H   58.782169   97.363182    1.660756
H   94.156487    5.117370   15.824209
H   97.801849   59.113983   91.811462
H   28.706232   49.398289   33.310555
H   30.817947   32.652214    0.223882
H   38.298466   43.775646   63.723064
H   46.441822   53.377151   69.626663
H    6.443435   30.640051   63.338200
H   46.546841   32.046978   35.464119
H   84.112045   61.252182   11.941143
H   19.046024   60.517918   39.073051
H   60.724342    1.488806   90.348099
H   78.508499   93.127304   81.179680
H   84.756783   16.166956   16.737385
H   42.471344   51.635750   74.298698
H   81.357216   49.080906   63.048290
H   81.946770    0.875089   60.215088
H   75.174995   69.608200   27.300413
H   82.639870   98.213203   21.281292
H   32.370869   24.236389   48.279564
H    9.638489   40.406548   95.085281
H   51.397385   48.080898   56.616379
H   12.009141   28.166351   33.620689
H   41.971519   42.889454   27.695972
H   26.248245   42.717564   62.749580
