100
TIME:    4.227, STEP:  4227
H   31.466980   34.383820   95.276077
H   83.736366   33.918785   44.631996
H   52.412994   78.011513   73.725914
H   82.186096   58.498039    8.466117
H   57.310196   11.570193   51.092865
H   62.477406   96.628670   97.359673
H   31.433693   46.765598   21.009912
H   87.652428   54.290348   20.084431
H   49.720207   79.884521   34.012104
H   59.327553   77.076820   73.215912
H    7.069778   36.324894   32.583752
H   94.506508   35.568153   92.046989
H   74.333542    5.974667    5.006151
H   45.784401   92.047066   78.916962
H   31.918301   92.454987   47.584988
H   31.566685   42.020256   82.163025
H   84.196877   61.552532   58.188835
H   91.464684   89.141518   52.998737
H   11.105312   55.682892   86.057175
H   78.634361   16.051092    4.126437
H   13.440536   35.406315   42.514999
H   67.626953   49.695389   59.310181
H   29.307487   60.244301   11.410188
H   26.307426   87.377899   93.138794
H   78.402618   50.938011   67.757179
H   27.277269    1.692738   92.930779
H   97.579597   66.767715   83.839211
H   75.879333   53.741776    6.492295
H    3.082543   32.598141   57.359444
H   63.075104   86.221214   19.422882
H   82.414787    1.099352   74.952156
H   32.652447   35.723885    7.949456
H   68.102638   59.214760   78.598495
H   56.702499   86.343475   93.675087
H   75.699188   39.391411   82.122986
H   40.083225   16.506016    6.139235
H   85.223160   49.734360   41.536304
H   89.282707   81.595879   20.729588
H   66.651581   89.319267   34.684181
H   65.056313   16.465446   70.606812
H   46.365906    1.224306   41.931988
H   51.722458    1.566953    1.389912
H   47.650463   88.848007    6.794986
H    9.436758   83.610657   94.028564
H   89.994698   65.113251   17.826536
H   23.553577   43.540363    0.331025
H   74.758102   54.716698   66.042671
H   56.465160   38.906693   30.120705
H   88.590256   82.369415   75.858521
H   14.530414   95.071465   88.022682
H   43.222126   61.553978   97.985626
H   10.557158   71.505997   96.566315
H   96.553093   46.518311   57.372883
H   78.804008   38.238495   18.342148
H    4.234353   29.032343   36.299450
H   98.855148    8.087408   48.729752
H   64.223694   67.578377   58.010338
H   11.304557   77.699532    4.676678
H   23.651403   17.369789   86.974205
H   80.080032   52.690205   43.384651
H   26.343317   81.996605   84.825630
H   48.890129   88.597763    4.094582
H   61.032650   18.840137   43.612389
H   33.299667   64.789444   12.375378
H    0.098283   23.240154   89.210884
H   41.673744   32.136024   96.117035
H   48.428635   94.501556   71.141708
H   88.377846   59.284012   68.277641
H   67.576889   46.061066   95.121796
H   16.025763   60.749992   92.832275
H   87.805550    7.794489   11.441509
H   25.431961   11.239213   66.104149
H   31.383722    9.222706   53.370117
H   37.157848   81.887032   51.999809
H   65.970222   34.665348   21.833437
H   25.586016   78.484459   11.506506
H   50.739624   60.179150   65.805595
H   30.572475   74.328239   47.882133
H   64.210808   41.102695   64.848000
H   92.225037   78.743050   56.761375
H   93.590042   73.011917   32.626217
H   58.482887   71.833084   33.318848
H   85.239052   77.814484   32.500896
H   40.960823   73.872505   77.345383
H   46.509857   84.483452   37.992096
H   54.009747   64.321709   35.319031
H   49.466499   96.015579   25.103315
H   23.995825   66.870415   51.783905
H   43.406601   58.819466   93.619392
H   92.614761   35.365738   75.321060
H   97.008820    1.678189   22.728312
H   91.051620   13.393187   14.070318
H   56.412376   54.349159   45.884930
H   55.784153   69.632782   11.823935
H   83.507744   71.101402   13.219197
H   43.054474   28.811169   49.118965
H   27.082756   10.259404   94.090027
H   22.381895   52.228058   88.396690
H    7.348639   55.071232   90.980934
H    1.767262   70.159462   90.539673
