100
TIME:    9.463, STEP:  9463
H   77.378082   54.219337   90.482376
H   39.130600   17.649456   74.778252
H   42.431149   54.709846   12.258825
H   83.064941   42.775566   21.462900
H   10.402624   31.258163    9.125584
H   81.275269   90.956123   15.898120
H   57.012897    0.324011   30.472103
H   76.113159    7.272303   39.332748
H   21.009270   76.463043    4.424664
H   16.289988   52.259663   78.235451
H   20.029816   47.005325   28.223181
H   94.663506   98.022087   19.342285
H   40.325623   89.205910   84.700562
H   86.530670   75.908272   77.378990
H   95.543587   24.751015   95.825706
H   21.036510   84.060287   47.529358
H   63.148842    7.875492   34.842575
H    3.427590   34.369209   71.490799
H   92.657333   75.338730   61.907513
H   37.565365    4.856501   60.617638
H    2.728457   14.145966    0.401609
H   69.607376   56.646255   13.416382
H   59.397514   17.666983   61.603058
H   39.808727   50.033173    4.269021
H   91.133896   35.697472    6.423244
H    2.986487   47.134262    0.371075
H   46.074196   49.112148   87.726181
H   34.081413   98.140564   79.569633
H   16.935192    7.649626    9.851330
H   63.846413   56.630264   35.669502
H   88.484123   70.620544   60.696655
H   63.256916   91.059891   23.226738
H   36.918495   76.124435   50.298729
H   77.936157    6.495239   73.090446
H   45.447899   43.188087    0.788420
H   95.240234   26.615683   89.676735
H   87.423767   57.979744   54.112690
H   72.867256   85.776634   90.219170
H   45.636654   75.234764   27.277134
H   71.883911   26.288483   82.564163
H   88.522827   80.880356   65.288658
H    2.723682   78.712326   63.062115
H   92.725739   20.254784   84.995018
H   75.105263   71.485451    5.976184
H   35.810905   58.543690   65.888626
H   55.977760   43.403057   21.605822
H   15.675086   39.470127   16.306261
H   56.765194   92.835831   54.093983
H   41.642036   48.723980   66.993134
H   24.411764   74.771751   21.879585
H   43.973057   56.137199   51.462128
H   65.030884   85.643036   52.849098
H    5.154114   76.878418   53.277245
H   57.546593   52.809464   49.391853
H   87.336433   87.896896   80.825821
H    5.381914    2.579566   70.483932
H   96.165802   16.495903   55.997520
H   21.421381   83.223320   69.809837
H   36.605923   38.615685   85.011024
H   34.558300   55.146748   94.460365
H   56.637020   38.497837   76.590553
H   63.057549   39.861801   67.186287
H   16.503323   61.544945   84.564148
H   92.846985   93.311966   70.221527
H    7.924838    5.048295   76.816490
H   20.022388   71.839867    5.710935
H   28.334648   75.521149   23.936142
H   26.691772   58.736641   18.588730
H   28.536501   69.835510   66.731293
H   22.213593   23.946749   81.772751
H   21.531986   51.536068   48.640907
H   94.012413   37.391991   49.679256
H   89.986740   50.230663   19.117191
H   21.892994   50.506123   40.893806
H   18.312998   42.249004   18.792471
H   49.370682   14.061893   59.188339
H   26.225288    6.752902   58.573280
H   76.560982   31.965889   37.056419
H   15.299592   25.722904   23.264467
H   35.450432   93.524330    5.675366
H   96.069542   27.181437   45.574043
H   51.391197    5.845304   95.329521
H   16.428812   65.373085   31.151379
H    1.188873   21.928703   99.119255
H   91.562134   56.951469   30.421892
H   33.500370   56.647438   98.922501
H   99.167213   15.314961   74.775505
H    8.219524   47.837990   97.463333
H   52.069340   67.287575   50.795662
H   29.682272   19.942162   62.493622
H   11.288071   84.404510   33.303368
H   78.465073    7.187751   13.835839
H   92.050156   11.451002   50.792900
H   60.705116   87.196335   66.595390
H   92.980042    2.090933   33.534218
H   75.526581   22.048449   78.672562
H   11.474137   10.740830   92.961975
H   20.011530   54.688526   88.906761
H   57.917503   77.665718   52.412861
H   26.994980   35.798992   86.139114
