100
TIME:    2.053, STEP:  2053
H   78.486481   33.750687   97.266434
H   44.162346   16.054773    7.502750
H   15.044050   21.604889   99.235649
H   81.821198   48.067039   27.630856
H   76.782516   37.314518   10.039879
H   96.181526   98.983925   82.061455
H   45.372181   99.964989   51.000130
H   58.524544   66.211517   19.693954
H    3.161322   88.905731   70.859047
H   18.737074   45.861397   88.082695
H    9.289963   48.849339   41.994038
H   77.483963   26.596743   46.793938
H   12.671494   37.498146   21.077698
H   53.428902   98.747932   13.473721
H    5.471637   86.645203   52.087540
H   18.978195   32.166328   62.624771
H   59.009323   17.765175   60.273888
H   45.016258   94.863091   28.372448
H   77.239265   64.481445   71.521317
H   37.206642   62.213642   56.110420
H   42.448700   51.835369    1.522797
H   59.202885   46.809662   44.446098
H   58.333519   77.925301   73.611267
H   28.295601   61.304234   54.601402
H   56.156609   23.352646   51.709358
H   37.245434   66.433563   96.744804
H   85.046532   57.138035   40.705868
H   59.314865   52.266811   34.632771
H   55.811371   35.355873   60.125725
H   79.714775   40.028397   46.595913
H   96.860939    6.148325   46.957058
H   95.384979   95.791664    9.207542
H   14.967840   18.274986   82.747406
H   64.845375   85.577621   85.261902
H   29.740948    3.729007   49.740898
H   51.055157   45.758350   13.582288
H   76.707947   29.351629   70.233704
H   79.136208   21.378361   67.314781
H   58.426712   36.682480   45.357147
H   69.822990   19.988012   99.559525
H   94.942055   26.627069   90.712326
H   47.109253    3.996313   99.253601
H   28.924528   75.811172   49.763153
H   48.260979   47.179474   81.465134
H   78.572517   50.888508   31.791292
H   51.601017    2.074604   91.506599
H   57.757954   36.488968   45.165993
H   56.349056   16.520918   95.605965
H   25.041708   62.418812   62.581345
H   68.945976   61.997372   40.074718
H   43.387989   71.439552   75.063354
H    4.905359   73.236679   39.286694
H   51.466911   33.912720   83.635033
H   29.150425   73.712059   22.409369
H   77.321304   38.481892   17.826918
H   96.134995   10.374344   22.737839
H   26.403261   30.308769   51.244865
H   73.186371   83.006897   60.675247
H   52.191780   25.513235   53.874130
H   23.542263   85.588211    5.218093
H   89.205185   83.097603   54.326839
H   26.046814    8.834850    2.461407
H   13.486097   67.154076   92.714279
H   84.015503   52.962303   71.403954
H   13.808421   96.873932   86.753220
H   75.226265   40.212257   67.574730
H   22.852728   19.340883   66.181168
H   38.551125   34.951050   64.347870
H   59.225121    2.270840   31.471909
H   71.975647   51.403923   97.410095
H   56.840630   55.713905   37.524937
H    4.688401   83.389908    6.932300
H   73.132095   16.757267    9.105907
H   85.009300   19.461283   81.192665
H   61.153305   31.564875   57.029400
H   74.194435   39.150719   57.787685
H   53.354637   48.607025   27.357538
H   28.434002   16.479605   27.819309
H   59.960167   47.488132   40.583076
H   98.842262   97.142838   44.053352
H   51.057713   50.520885    2.692132
H   95.361511   57.635208   15.106848
H   47.696201   41.523651   25.437870
H   91.397652   87.839455   75.911011
H   52.365646   20.467361   48.737076
H    4.038529   84.465233   84.349724
H    4.269964   54.083099   21.438398
H   89.004410   40.926315   74.398659
H   98.287056   79.864632   11.403450
H   84.825790   24.808998   97.608574
H    8.039886   84.287354   76.817337
H   30.188902   49.910000   72.639534
H   17.008419   89.147507   77.740707
H   45.658474   37.762241   65.240501
H   21.096550   65.835358   63.262352
H   63.490967   14.660845   61.408829
H   99.645248   85.498070   19.119614
H   14.403054   33.717743   23.187344
H   10.913069   45.699970   73.079880
H   66.739578   25.969772   99.952179
