100
TIME:    5.686, STEP:  5686
H   32.800941    0.587070   93.940323
H   43.441109   12.978925   36.625874
H   77.497772   82.977875   56.601185
H   82.430984   98.386139   28.493477
H   44.242065   28.515398   11.534838
H   39.847500   95.048027   41.850063
H   54.965801   45.284206   35.105686
H   72.977905   80.512924   86.124199
H   13.855202   39.607742   42.173676
H   19.457037   98.025902   30.347425
H   71.357162   95.031296   92.045280
H   38.822777    8.700386   88.193718
H   81.231491   17.746819   60.032158
H   73.544228   87.550026   89.946800
H   49.661598   62.130997   77.452362
H   72.901947   14.410808   61.053436
H   66.872810   58.054249   91.007355
H   22.659155   18.157158    2.420198
H   33.829388   16.887110   62.920841
H   39.325645   85.064491    3.461941
H   26.861412   90.157776    2.916924
H    7.502701   51.632233   35.062836
H    9.826854   48.378349   69.667099
H   90.746574    4.849337   84.781601
H   26.219765   35.231743   78.532265
H   20.626326   58.568329   55.731171
H   71.769531    6.115808   12.784624
H   52.773029   21.842949   54.723610
H   34.807823   64.970367   88.392426
H   19.019806   50.111320   35.408829
H   39.835320   31.930450   59.520714
H   24.774601   95.415405   72.882561
H   70.872307   52.467293   10.036740
H   18.348507   52.634727   32.208122
H   39.433456   29.102072   70.964905
H   66.911865   30.781013    1.549804
H   25.160725   96.300903   56.499859
H   28.979862   54.899258   23.687077
H    5.063077   57.528313   93.296974
H   27.636126   79.879326   85.397301
H   46.653519   51.281860   76.305397
H   21.029034   63.900978   70.238396
H   60.217686   97.597198   12.180207
H   16.274059    8.082296   36.682999
H   63.436245    7.552745   42.677105
H    4.728428   71.368576    6.261183
H   86.156540   34.062637   80.045830
H   56.543079   53.933929   20.395346
H   31.237442   61.534225   17.656662
H   45.130322   17.275908   85.977951
H   43.111164   20.696985   13.366651
H   81.461769   36.120968    0.785463
H   26.816593   54.978088   72.636070
H   45.015678   14.428857   82.724327
H   88.066856   56.899570   48.710835
H    0.677635    6.552603   99.061935
H   56.718338   25.479851   96.773262
H    2.664628   39.915413   67.097031
H   38.719185   79.016350   74.966545
H   83.801346   64.834183    1.887216
H   18.377766   14.147076   71.069756
H   97.110664   75.017593   38.081108
H   60.084148   19.280584   43.564362
H   33.486710   72.737183   72.766785
H   58.011482    6.712364   25.081705
H   52.045952   59.605156   82.384026
H   31.370544   44.941494   41.582901
H   87.594734   42.726170   38.026279
H   40.292126   41.226631    3.615646
H   45.582336   34.131142   89.760040
H   41.477135    8.525242   93.940010
H    5.130918   62.817688   72.925003
H   36.253998   37.053024   15.957863
H    5.040356   89.552086   65.310692
H   36.316265   36.746899   32.435928
H   60.081871   71.993095   13.334219
H   83.207146   33.721157   91.607918
H   99.118942   78.927422   28.456095
H   34.177158   36.817150   81.121941
H   20.677952   99.275795   31.067127
H   22.138102   88.105942   19.827929
H   67.960861   81.345367   11.306796
H   77.527550    2.209216   71.450180
H   41.337402   98.722092   44.088367
H   75.467979   93.221809   96.558563
H   20.426655   17.909584   36.636414
H   46.909813   89.934258   94.673859
H   47.475517   50.074657   36.622772
H   73.683701   77.585014   81.686653
H   63.620907   75.339279   27.478689
H   56.717216   80.458679   53.539715
H   99.005318   23.120737   41.867012
H   49.936981   98.126534   58.711689
H   96.798042   58.136181   10.197310
H   58.284248   40.412716   46.743748
H   63.561874   71.197784   73.759567
H   11.274649   93.988747   10.182195
H   27.302034   67.800125   64.732811
H   37.845032   61.360409   68.775856
H   92.390900   32.723118   49.990818
