100
TIME:    6.511, STEP:  6511
H   77.010086   24.930494   93.185013
H   20.657490   57.686878   88.644875
H   91.685013   42.330986   46.914333
H   82.569458   64.397186   83.273071
H   36.852615   94.642792   89.165939
H   27.051289   94.154243   23.552063
H   11.729274    0.990532   99.621758
H    8.134537   51.885441   10.374846
H   93.575066   60.287292   90.242455
H   96.920845    9.872494   62.649723
H   94.617676   28.226568   12.577377
H    7.332642   50.053333   29.468498
H   28.586380   67.857460   78.055840
H   32.694542   85.007149   52.730915
H   59.688606   88.438225   37.788380
H   39.731247   42.253212   92.570801
H    0.531115   12.623609   66.110359
H   40.301937   78.013870   73.819374
H   46.675953   51.499191    6.387936
H   17.100647   67.541298   59.631767
H   77.904755    8.026104   80.522408
H   86.596252   52.727432   64.806488
H   98.810966   41.668678   46.063660
H   14.091827   14.718721   23.509642
H   96.714302   69.805908   84.625099
H   16.865511   34.178108   78.151543
H    0.627678   71.823990   29.155661
H   83.162308   60.351173   81.992447
H   52.746437   39.820568   49.393250
H   50.653416   29.692772    0.994880
H   72.305748    5.910017   94.249413
H   76.865814   72.617630   96.508202
H   28.982826   92.107002   84.359253
H   53.207298   77.028458   97.454025
H   18.915512   66.695992   21.185152
H   38.627422   95.397850   98.955788
H    4.289013   66.088501   21.506506
H   94.881737   39.799351   81.904533
H   70.242523   39.551933   13.348139
H   49.929592    2.644796   50.306942
H   90.271301   79.590569   95.742043
H   51.502396   67.136032   12.358476
H   67.320953    2.545415   71.769646
H   63.592793   21.929647   17.347055
H   91.874794   75.000015   13.274013
H   94.080193   87.104202    9.612871
H   92.601852   78.928055   87.963997
H   56.587139   62.431168   71.441711
H   55.350716   93.209450   84.747910
H   62.439289   29.834475   28.282431
H   43.054516   41.048782   22.062634
H   21.558342   59.568054   46.629646
H   43.930660   59.761719   24.719553
H   25.912628    0.967028   19.128632
H   22.379597   29.197571   55.728924
H    1.705202    5.684783   70.976990
H    9.021863    1.674087   75.237694
H   41.232819   62.003960   45.847641
H    3.786418   13.875787   11.633688
H   29.360085   28.245182   78.422264
H   70.419456   75.779068    6.747892
H   67.829811   67.338608    0.750427
H   16.091818   62.984169   86.991638
H   90.138351   77.231277   50.368008
H   90.755325   40.821529    1.909690
H    1.366530   18.591820   31.164976
H   65.178787   73.462830   81.412918
H   30.606590   89.907875   77.466049
H   81.409798   81.947403   51.875080
H   62.293571   75.627373   88.022827
H   15.278498   52.392883   84.045448
H   37.105473   35.437698   33.326462
H   82.461548   96.246826   94.804504
H   86.876808   37.338200   16.292078
H   76.091545   37.923923   94.975601
H   79.582726   24.866394   57.820679
H   58.120693   62.258167    6.215143
H   37.878948   24.981550   74.018791
H   73.738075   34.393864   90.324135
H   80.219681   54.334846   59.992699
H   38.282852   96.640945   69.136307
H   29.877516   86.695618   42.294086
H   29.710350   16.004919   50.018715
H   98.096443   69.319481   68.737022
H   35.298073   41.618813   16.583817
H    1.437173   48.214935   93.926682
H    2.009696   29.950050   34.013054
H   60.743797   84.057312   28.068886
H   90.804062   31.649599   74.939217
H   90.678696   41.396488   56.967735
H   90.479576   25.007511   70.962204
H   60.046963   85.169006   57.583755
H    2.821226   22.881290   22.510202
H   76.529579    8.187831   65.825729
H   44.021477   66.514847   65.702026
H   31.703522   38.618744   31.147491
H   45.789543   41.332504   62.735794
H   25.709589    8.623845   48.172363
H   98.544212   64.918282   99.671761
H   43.633793   11.552513   70.515907
