100
TIME:    9.441, STEP:  9441
H   78.865875   56.236855   90.502518
H   39.738205   16.457241   73.391167
H   42.052990   53.127052   12.517099
H   83.061249   43.681938   22.668795
H   10.599760   29.494766    9.722069
H   81.616333   90.979958   13.719386
H   58.165836   98.838539   28.751675
H   77.842316    5.369069   41.352783
H   21.550072   78.578247    5.809505
H   16.890963   51.943775   77.374062
H   22.076202   46.120102   30.342329
H   95.503075   96.919334   20.908211
H   41.728485   90.537605   86.886932
H   87.619995   75.976082   75.704887
H   95.276375   26.716164   96.883812
H   21.921146   85.984482   49.355530
H   64.917946    6.420408   32.839828
H    2.957106   35.439735   72.253494
H   92.314590   74.415909   60.748531
H   38.158031    5.323702   59.119774
H    4.034000   16.336149    0.998779
H   67.498215   56.617050   15.289886
H   59.691246   17.845823   62.232483
H   41.852932   49.769989    5.902945
H   91.920761   37.442238    6.260852
H    3.090269   47.782822    2.441394
H   47.971367   50.026745   87.289780
H   35.937630   97.113678   78.842522
H   16.456829    5.653636   10.891224
H   63.002815   57.174759   33.920540
H   87.618370   68.647675   62.437225
H   61.867817   91.667831   25.263390
H   35.368767   77.734085   48.316795
H   77.006622    8.511387   74.017296
H   45.995415   44.853798   99.449936
H   93.327789   24.892485   89.745888
H   85.313599   58.785408   52.379169
H   73.776649   86.179131   88.666588
H   46.565350   75.714134   29.409039
H   73.956146   28.348129   80.833328
H   90.026398   80.125381   64.770348
H    4.577759   78.626053   61.939053
H   92.536407   20.122772   83.405846
H   76.509804   71.116188    3.825228
H   37.719154   59.411625   64.006058
H   56.261589   42.983440   21.516443
H   15.503085   38.273548   16.095026
H   56.763851   92.609238   52.732746
H   40.999016   50.545956   67.870636
H   23.950018   74.436729   23.417816
H   43.850529   58.251900   51.420837
H   63.961697   87.684387   54.293251
H    4.697781   76.750854   54.555061
H   58.056007   53.168488   48.421028
H   89.088081   85.969009   80.638840
H    5.354513    2.602708   71.232864
H   94.770996   17.130699   53.905144
H   23.059481   85.300926   70.376488
H   34.870724   37.685982   86.699898
H   36.010006   53.455692   95.086098
H   55.249096   39.520863   78.305611
H   63.838371   40.066574   68.181618
H   15.009738   63.046165   86.072754
H   91.336365   93.192123   70.818726
H    7.051615    6.805461   74.767754
H   21.373806   72.933556    4.410081
H   30.099808   74.760468   22.873924
H   28.211456   57.478462   17.537003
H   27.439959   71.416290   68.110992
H   21.766785   22.841814   81.819412
H   22.230648   53.033092   48.904762
H   95.824150   38.122459   48.066753
H   91.421158   51.318813   19.681324
H   22.377232   51.898411   42.200996
H   17.253298   42.216610   17.124411
H   48.850525   12.651896   60.668579
H   24.227158    8.657108   58.183037
H   75.527382   33.404335   35.841377
H   14.244634   25.787525   23.018908
H   36.529350   94.722755    7.570670
H   95.638847   26.953836   44.259132
H   49.740425    5.702487   97.170128
H   15.037279   65.005165   29.056149
H   99.675301   20.046051    1.128631
H   92.633331   58.327644   32.554489
H   34.006763   55.839256   97.394760
H   97.697884   16.914558   73.726463
H    7.865738   49.598366   97.691269
H   51.612797   68.512520   50.975594
H   31.627363   20.847359   61.707260
H   10.387699   83.216492   32.838768
H   76.837296    5.533181   13.416726
H   90.639908   10.790861   49.091606
H   58.703041   85.871017   64.921288
H   93.360382    4.061600   33.028664
H   73.709473   22.917139   79.808884
H   13.220372    9.478330   94.227203
H   20.053995   53.600040   89.348534
H   58.965538   77.570717   54.255650
H   25.628540   36.363461   88.258347
