100
TIME:    2.121, STEP:  2121
H   73.887848   27.514725   97.204178
H   42.270805   19.741617   11.792049
H   16.212904   26.496902   98.437737
H   81.832611   45.265526   23.903545
H   76.173447   42.765018    8.196198
H   95.127327   98.910255   88.795464
H   41.808552    4.556800   56.317818
H   53.179878   72.094696   13.450264
H    1.489725   82.367828   66.578957
H   16.878996   46.837776   90.745171
H    2.964773   51.585484   35.444202
H   74.888931   30.005251   41.953545
H    8.346139   33.384071   14.319078
H   50.061897   98.538338   18.648739
H    6.298797   80.571106   48.818588
H   16.243866   26.218819   56.980240
H   53.542221   22.262123   66.464920
H   46.469414   91.556267   26.014767
H   78.298653   67.333801   75.104141
H   35.374763   60.769825   60.740181
H   38.413483   45.065563   99.677139
H   65.722687   46.899643   38.655518
H   57.425621   77.372261   71.665771
H   21.977669   62.119785   49.550896
H   53.724480   17.959732   52.211037
H   36.933636   64.407135   90.370842
H   79.183067   54.311100   42.055264
H   53.577469   55.440823   36.880482
H   57.289948   41.525429   56.911247
H   82.322258   38.345413   52.001797
H   99.535866   12.246546   41.576595
H   99.678558   93.912575    2.912484
H   19.757679   13.299965   88.873383
H   67.718483   79.345810   82.397095
H   28.050442   98.588654   53.881432
H   56.967388   51.100422   13.348569
H   83.230286   26.861135   75.591858
H   76.325356   20.133762   72.113670
H   55.546471   35.202454   38.771233
H   63.417950   13.622043    4.909620
H   90.294655   28.960367   92.314377
H   40.997803    7.048342    2.448238
H   29.510252   76.218948   54.674622
H   43.918633   48.319275   88.114059
H   72.673775   48.205799   37.610649
H   50.723728    3.371601   91.782600
H   58.299419   40.185394   45.815308
H   56.352688   17.221037   99.813423
H   27.029226   56.787251   59.868546
H   70.371635   63.032375   35.318890
H   43.382801   64.874672   75.780334
H    8.209848   66.927048   34.822430
H   52.877525   34.307007   79.685936
H   27.575871   72.602867   25.409842
H   71.908157   44.443409   18.403822
H   96.220078   10.302879   20.422958
H   30.713961   28.346672   57.712212
H   68.122894   76.585205   58.923782
H   57.554604   28.386602   48.653458
H   19.055172   90.814590    3.284128
H   93.494614   79.935005   49.025234
H   23.633621    8.201786   99.384567
H   18.098549   62.517052   88.049240
H   88.684692   53.332207   69.558067
H   16.507473   91.443146   93.085678
H   71.048897   36.831764   71.595421
H   17.396780   21.691820   69.464127
H   33.853920   38.839966   67.598663
H   62.614433   97.384804   27.206863
H   73.353577   54.824364   97.266907
H   54.681389   51.086998   36.709156
H   99.081543   81.133133   11.910967
H   68.698441   13.393894    7.362225
H   83.513084   15.158080   77.151222
H   64.431664   31.661631   62.184185
H   75.801674   43.509148   53.212399
H   59.528862   42.712952   28.560373
H   31.628765   12.033239   31.574894
H   63.220261   47.288685   41.341820
H   95.507423   93.439651   38.195076
H   52.388432   51.224377    6.756262
H    0.463414   58.079300    9.420553
H   51.998600   42.658783   31.914555
H   96.075142   93.658302   69.699951
H   49.054672   16.213730   42.145218
H    2.473378   86.962730   89.071831
H    8.811529   49.138947   24.680891
H   90.099075   35.482040   73.691017
H   99.698189   76.078438   10.847168
H   78.813950   22.011116    0.039660
H   10.822723   87.959412   78.253372
H   35.220638   55.023800   73.935493
H   21.371258   91.185349   83.001328
H   52.231136   41.887211   69.825645
H   19.920692   59.744293   64.824974
H   69.107483   11.975672   57.896561
H   94.247665   89.400475   15.208881
H   14.652726   34.296722   22.099163
H    7.673819   45.993092   67.383469
H   70.962601   24.223236   93.402863
