100
TIME:    0.843, STEP:   843
H   60.313637   44.713875   98.374222
H   77.820641   50.452084   31.176359
H   94.248352   34.552334   13.441666
H   81.618103   97.917503   93.955193
H   87.620377   40.327690   42.847511
H   14.944149    0.296158   62.231579
H    8.789516   18.260450   56.376469
H   53.628159   61.531116   30.792549
H   32.905449    5.242340   47.023720
H   51.802696   28.488522   40.701752
H   21.841217    0.162654   58.546677
H   23.664951   65.945946   32.922829
H   89.639206   10.704788   41.341484
H   13.341263    2.478105   21.392467
H   90.755089   94.724548   10.249502
H   67.628952   38.002316   63.063950
H   56.290596   37.745926   50.108116
H   19.158638   53.705612   70.321091
H   58.391151   13.717143    7.776251
H   69.830147   87.857513   73.699196
H   14.251724   72.294647   34.363762
H   43.180225   45.212601   47.476124
H   74.488762   87.766151    8.230198
H   40.717712   46.792210   44.466682
H   99.434196   19.318264   42.782433
H   42.793606    2.491626   10.159110
H   89.385971    7.433770   16.694563
H   61.410110   95.787582   94.638107
H   29.501404   25.575377   17.323269
H   33.316921   69.975601   50.404446
H   49.262974   97.638969   42.703758
H   18.984533   29.221161   21.223320
H   29.737209    6.804727   73.741051
H   13.720853   96.466896   36.236305
H   59.817741   95.195686   76.060745
H   45.850830   50.707165   17.743689
H   60.652843   73.663429   74.890450
H   29.148186   43.524891   81.929375
H   12.821589   62.512428   61.330231
H   83.792015   33.264179    4.359156
H   77.631287   85.106651   62.204662
H   55.857140   49.693207   42.405613
H   18.502089   68.555161   62.362732
H   25.527792   26.898882   63.157112
H   83.531197   98.631638   28.245588
H   67.184975   79.051567   86.624123
H   44.981373   71.217041   34.826607
H   56.284435    4.062917   20.737959
H   89.672661   62.630852   10.845763
H   43.570194   43.580395   24.704498
H   43.480305   88.257057   62.305332
H   46.100655   85.515030   18.720062
H   26.366282   26.896729   53.910728
H   57.168232   93.449150   69.015884
H   73.649261   32.406399    7.559517
H   94.621017   11.645992   63.929092
H   49.693359   65.222557   36.163841
H   63.287048   97.276405   91.841019
H   56.761559   74.387192   46.766232
H    3.390314   92.583054   39.632652
H   12.877518   39.367432   48.668129
H   68.991425   20.098831   57.213379
H   31.412724   49.667503   75.724953
H    0.926030   46.380196    4.251066
H   65.784340   93.514854   74.068779
H   49.558449    0.365148   96.030602
H   19.933256   77.506226    7.761895
H   22.134178   65.749191    6.502875
H   98.915947   89.213730    7.360054
H   47.462830   90.543602   99.958008
H   95.262413   38.044430   52.036961
H    4.458384   23.548149   18.341707
H   52.026855   76.607460   40.133205
H   11.636235   96.032516   53.106606
H    2.817142   29.843187   65.303032
H   45.589100   61.602402   39.206409
H   43.494061   53.480339    5.950693
H   71.585999   95.598778   60.997417
H    1.958351   51.033054   27.088207
H   58.183243   63.044380   48.295929
H   27.378742   38.002880   30.372246
H    4.573635   49.732986   16.286705
H   71.134682   21.327421   10.191404
H    8.159868   84.298195   86.431343
H   11.282070   96.153061   66.033073
H   31.890003   40.019489    0.323591
H   23.456793   42.059959   63.740582
H   69.525803   37.801231   86.977989
H   73.177193   47.234932   21.303234
H   91.804062   74.596802   54.349453
H   58.521580   18.951765   51.264355
H   40.660419   58.907631   49.584854
H   39.371925   52.888741   84.131432
H   28.706850   64.368446   83.657448
H   42.017689   74.219330   35.456871
H   63.549927   62.441826   23.907097
H   95.689316   16.058226   88.707169
H    9.960362   23.415314   42.548042
H   68.553490   40.484135   74.436745
H   91.594589   57.051563   16.492899
