100
TIME:    5.505, STEP:  5505
H   45.041420   17.185287   94.106033
H   48.440041    3.170507   25.212978
H   74.385178   69.955795   58.726421
H   82.400604    5.843639   38.415146
H   45.863266   14.007448   16.442253
H   42.654911   95.244118   23.924646
H   64.451408   33.061680   20.951250
H   87.204147   64.853287    2.742368
H   18.304527   57.010101   53.567650
H   24.402803   95.427010   23.259161
H   88.193344   87.748322    9.480389
H   45.731522   99.628059    1.077654
H   92.781509   28.692684   78.017265
H   82.506401   88.107918   76.173500
H   47.460411   78.298813   86.152161
H   80.179398   30.241714   76.077850
H   81.427711   46.083050   74.530212
H   18.788435   26.963978    8.694410
H   31.010685    9.293429   53.385586
H   44.201675   88.908974   91.138649
H   37.602211    8.176598    7.829548
H   90.150055   51.391953   50.476669
H   12.243810   49.850410   74.845551
H    7.563751    2.684054   98.223480
H   32.692902   49.586411   77.195534
H   21.451426   63.919395   72.751724
H   87.376694   13.640055    9.193195
H   68.044991   13.394478   48.740082
H   30.872200   48.548466   96.948608
H   12.079796   54.591026   21.020164
H   32.711151   15.699809   73.840858
H   13.346184    0.416991   89.638649
H   58.123013   65.710320   93.730827
H   10.700519   69.222343   39.833565
H   43.932495   42.784378   59.942909
H   51.177662   16.603794    2.119036
H    7.800487    2.929587   42.237713
H   36.460308   58.212086   10.914806
H   12.703431   61.472221   10.837061
H   44.683765   96.823219   71.157249
H   59.023804   45.071861   72.041115
H   36.862450   58.926613   61.424679
H   58.658627   96.511795   99.106514
H   27.830982    5.044104   18.985994
H   79.137260   14.693830   27.188486
H    7.064082   67.916275    5.525843
H   84.742477   24.218891   78.308632
H   56.533413   52.069687    9.196082
H   25.947136   76.525269   24.876804
H   41.334171   14.520971   98.638229
H   43.124622   38.171600   11.458564
H   72.665306   52.917103   12.668198
H   23.061871   53.928589   83.147636
H   49.206772   17.382462   74.737083
H    2.478235   41.036938   47.171108
H    0.452180    6.742997    5.223618
H   45.244270   30.702492   79.558708
H   16.142063   57.008446   71.759018
H   24.444609   71.368813   88.861366
H   95.746307   50.921490    7.035286
H    6.959898   22.564400   85.182762
H    3.534373   76.702316   46.271347
H   47.795338   31.632227   55.976074
H   21.057652   71.751205   77.680099
H   50.826553   21.168545    8.225501
H   63.165123   68.603233   71.681892
H   45.892334   38.684544   32.844437
H    0.097592   32.374790   29.373434
H   31.270575   54.232140   14.967851
H   41.915993   25.027264   90.141174
H   47.224525   20.840500   96.110817
H   20.054996   68.824692   59.673241
H   48.055344   46.005531   20.599136
H    9.024311    1.008132   76.065300
H   27.589880   36.488667   18.714436
H   55.802399   60.392937   25.513170
H   66.774193   49.409794   88.406944
H   90.615234   90.761909   18.459612
H   25.498074   37.348804   79.103035
H   29.552437    9.135251   46.660522
H   18.596041   86.233414    9.010266
H   54.376343   80.171585   26.447790
H   66.079720   99.182434   54.212749
H   28.885469   83.233688   60.619366
H   84.281013    4.543044   14.104279
H   24.592892   11.261142   24.067276
H   34.821236    3.094482   86.043106
H   44.564537   64.559082   38.499443
H   69.927597   87.662971   83.167000
H   79.623047   82.785202   21.008387
H   49.309959   70.684525   49.717327
H   85.613152    9.508149   38.418854
H   38.334488   92.696754   44.714680
H   79.304543   47.155102   97.992912
H   61.413414   56.626102   42.584415
H   48.612030   78.345428   83.108398
H   25.641169   83.601463   20.591766
H   27.071821   63.109467   67.940422
H   46.467499   60.580189   83.935600
H   81.147446   37.367153   67.427429
