100
TIME:    5.269, STEP:  5269
H   61.001381   38.827126   94.322098
H   54.957985   90.382706   10.332438
H   70.326767   52.976730   61.497448
H   82.360992   15.567440   51.352005
H   47.977097   95.091095   22.840462
H   46.315403   95.499794    0.552480
H   76.821098   17.125126    2.495686
H    5.753288   44.436924   24.411556
H   24.105858   79.700470   68.423347
H   30.851427   92.038399   14.017004
H   10.145477   78.252289   32.213062
H   54.739609   87.798531   17.875841
H    7.841171   42.963951    1.467468
H   94.191887   88.835335   58.214363
H   44.590355   99.379501   97.495544
H   89.668228   50.883072   95.667694
H    0.405381   30.474194   53.046204
H   13.741731   38.446400   16.875151
H   27.334888   99.392563   40.952877
H   50.559372   93.921669   75.070656
H   51.606789   31.671806   14.234959
H   67.524506   51.078659   70.574265
H   15.395200   51.769783   81.597565
H   29.491592   99.860809   15.751027
H   41.133820   68.302582   75.452614
H   22.527246   70.894699   94.945145
H    7.726721   23.450390    4.510281
H   87.958931    2.378808   40.938354
H   25.740669   27.136683    8.104233
H    3.030759   60.431969    2.259410
H   23.423012   94.537292   92.512428
H   98.445229    6.936964   11.486290
H   41.498653   82.977470   72.470085
H    0.728687   90.850395   49.776131
H   49.798645   60.624100   45.572823
H   30.662401   98.118965    2.861231
H   85.164520   11.573051   23.641766
H   46.213818   62.531574   94.260826
H   22.665653   66.614555   33.706650
H   66.911629   18.916908   52.589001
H   75.153015   36.974846   66.481056
H   58.072777   48.334053   50.338772
H   56.625820   95.096573   82.059029
H   42.899677    1.082733   95.911301
H   99.609367   24.004471    6.992763
H   10.109545   63.414936    4.566938
H   82.898727   11.383763   76.043556
H   56.520809   49.638962   94.593819
H   19.049278   96.071899   34.291130
H   36.384495   10.928900   15.143982
H   43.142628   60.955597    8.970672
H   61.195885   74.816147   28.161819
H   18.166210   52.560181   96.853325
H   54.671402   21.233810   64.322777
H   21.269474   20.354673   45.163509
H    0.158228    6.991246   13.257614
H   30.283607   37.512123   57.113213
H   33.714493   79.295494   77.837631
H    5.832281   61.397263    6.978600
H   11.319967   32.781078   13.747688
H   92.072845   33.539448    3.583985
H   11.909685   78.898972   56.950333
H   31.772371   47.736252   72.159302
H    4.851873   70.465622   84.086411
H   41.458359   40.017849   86.247810
H   77.663048   80.335533   57.727730
H   64.826782   30.526146   21.449802
H   16.400093   18.877089   18.091269
H   19.507666   71.189598   29.770035
H   37.135567   13.157114   90.638123
H   54.718361   36.897690   98.941261
H   39.513954   76.657028   42.393486
H   63.442734   57.678413   26.650742
H   14.218861   15.944386   90.087883
H   16.211386   36.151966    0.823486
H   50.222534   45.266624   41.392475
H   45.346233   69.865181   84.233299
H   79.527527    6.192936    5.425844
H   14.181626   38.042011   76.470650
H   41.124298   21.990845   66.992188
H   13.977859   83.791885   94.905174
H   36.665413   78.638138   46.187279
H   51.151718   95.235657   31.736647
H   12.649126   63.038864   82.175110
H   95.772041   19.305298   36.981865
H   30.025112    2.592456    7.678559
H   19.059332   20.253708   74.789749
H   40.768066   83.446091   40.948288
H   65.030136    0.803257   85.097176
H    0.487704   92.493698   12.572153
H   39.651878   57.941181   44.733440
H   68.151543   91.758789   33.922913
H   23.206377   85.617043   26.464436
H   56.495934   32.837231   82.079765
H   65.493431   77.765038   37.161198
H   29.119415   87.665009   95.298035
H   44.373650   70.057823   34.164215
H   26.205763   61.100067   71.717949
H   57.710052   59.562885    3.702219
H   66.487473   43.422359   90.161011
