100
TIME:    9.395, STEP:  9395
H   81.976715   60.455299   90.544632
H   41.008652   13.964500   70.490898
H   41.262295   49.817574   13.057127
H   83.053528   45.577080   25.190210
H   11.011953   25.807663   10.969265
H   82.329468   91.029793    9.163852
H   60.576527   95.732613   25.154415
H   81.457825    1.389564   45.576492
H   22.680840   83.000946    8.705069
H   18.147547   51.283283   75.572975
H   26.355011   44.269180   34.773384
H   97.258537   94.613579   24.182419
H   44.661743   93.322060   91.458435
H   89.897675   76.117867   72.204491
H   94.717659   30.825111   99.096214
H   23.770840   90.007797   53.173889
H   68.616982    3.377955   28.652266
H    1.973365   37.678108   73.848221
H   91.597946   72.486374   58.325207
H   39.397243    6.300577   55.987877
H    6.763794   20.915548    2.247401
H   63.088146   56.555984   19.207214
H   60.305412   18.219763   63.548553
H   46.127178   49.219696    9.319349
H   93.566025   41.090385    5.921306
H    3.307267   49.138901    6.770249
H   51.938179   51.939083   86.377304
H   39.818810   94.966553   77.322197
H   15.456569    1.480212   13.065548
H   61.238930   58.313248   30.263702
H   85.808159   64.522583   66.076599
H   58.963337   92.938980   29.521843
H   32.128426   81.099716   44.172752
H   75.063049   12.726936   75.955254
H   47.140221   48.336647   96.651443
H   89.329041   21.289434   89.890480
H   80.901428   60.469978   48.754536
H   75.678108   87.020714   85.420280
H   48.507168   76.716454   33.866730
H   78.289001   32.654663   77.214310
H   93.170227   78.546799   63.686611
H    8.454464   78.445663   59.590832
H   92.140533   19.846748   80.083031
H   79.446571   70.344093   99.327705
H   41.709129   61.226398   60.069431
H   56.855049   42.106060   21.329561
H   15.143447   35.771610   15.653284
H   56.761044   92.135452   49.886524
H   39.654518   54.355541   69.705414
H   22.984549   73.736229   26.634117
H   43.594334   62.673546   51.334503
H   61.726131   91.952667   57.312843
H    3.743635   76.484131   57.226860
H   59.121147   53.919174   46.391121
H   92.750618   81.937973   80.247879
H    5.297220    2.651095   72.798813
H   91.854584   18.458000   49.530174
H   26.484598   89.645012   71.561302
H   31.242619   35.742058   90.231178
H   39.045391   49.919849   96.394447
H   52.347073   41.659916   81.891640
H   65.471001   40.494736   70.262764
H   11.886790   66.185081   89.227112
H   88.177795   92.941544   72.067413
H    5.225787   10.479565   70.484032
H   24.199497   75.220360    1.690132
H   33.790512   73.169952   20.652924
H   31.388977   54.847725   15.337936
H   25.147188   74.721558   70.995819
H   20.832550   20.531496   81.916977
H   23.691486   56.163235   49.456459
H   99.612328   39.649803   44.695156
H   94.420395   53.594036   20.860874
H   23.389729   54.809559   44.934212
H   15.037560   42.148876   13.636707
H   47.762924    9.703723   63.763626
H   20.049248   12.638660   57.367073
H   73.366219   36.411995   33.300835
H   12.038812   25.922642   22.505465
H   38.785271   97.228554   11.533539
H   94.738304   26.477945   41.509773
H   46.288811    5.403871    1.018610
H   12.127710   64.235878   24.675213
H   96.510414   16.109596    5.329925
H   94.873108   61.205101   37.013687
H   35.065586   54.149422   94.200394
H   94.625648   20.259132   71.533012
H    7.125975   53.279152   98.167862
H   50.658207   71.073769   51.351814
H   35.694530   22.740044   60.063049
H    8.505104   80.732452   31.867332
H   73.433762    2.073614   12.540399
H   87.691208    9.410566   45.534355
H   54.516884   83.099899   61.420895
H   94.155640    8.182087   31.971601
H   69.910065   24.733492   82.184830
H   16.871571    6.838556   96.872681
H   20.142786   51.324116   90.272240
H   61.156883   77.372078   58.108753
H   22.771439   37.543713   92.689468
