100
TIME:    3.258, STEP:  3258
H   96.997467   23.246025   96.163223
H   10.642767   81.388840   83.513687
H   35.756828    8.297877   85.096169
H   82.023453   98.419609   61.582607
H   65.989441   33.900570   77.367172
H   77.500496   97.678459    1.396127
H   82.218102   81.333641   45.232780
H   63.813919   70.459549    9.054607
H   73.540077   73.049942   95.007027
H   85.808861   63.163414   35.270035
H   97.203812   97.335434   25.922758
H   31.491974   86.997513   61.020958
H   36.021141   64.593842    1.310744
H   93.764214   95.033791    5.174450
H   20.130348   79.009750   94.162758
H   70.527222   26.772614   62.598976
H   62.118172   97.462891   69.976944
H   70.764610   36.264229   86.594421
H   96.012230   15.029429   35.006123
H    4.744675   36.628353   38.152397
H   70.942383   31.873238   68.812836
H   74.727982   48.409027   41.829468
H   42.245033   68.125114   39.135941
H   16.338043   75.756287   65.107368
H   13.059718   27.783577   60.600868
H   31.719954   30.532446   83.798622
H   81.138229    7.044989   64.617714
H   57.640491    8.512115   74.465202
H   82.012619   44.682999    3.165532
H   25.919079   10.204494   42.389893
H   44.278469   14.206986   51.616356
H   71.469337   62.493515   97.654701
H   99.845917   30.111038   91.303322
H   15.759257   75.146523   34.495834
H   99.785202   12.640418   23.118111
H   55.824764   40.418026    9.440652
H   92.283730   85.220200   65.182976
H   29.332657   99.324013   52.348591
H    7.550161   10.431513   28.587523
H   56.325558    7.179803   94.366737
H   12.590757   67.971359   19.102766
H   38.810692   58.080780   55.864609
H   39.303898   83.037201   36.802486
H   71.313843   67.375885   99.284264
H   74.047554    3.348727   34.907162
H   36.054943   25.058155   96.397499
H   67.187790    2.018212   56.736656
H   56.413410   28.927439   70.164513
H   60.261703   62.620850   14.510550
H   94.209496   80.330055   55.794628
H   43.296055   55.104767   87.768661
H   63.465321   61.422058   60.181583
H   76.459236   40.899719   13.649307
H    1.248394   54.051872   75.583282
H   81.386246   44.107140   28.058153
H   97.642715    9.107626   81.716797
H    2.795801   95.538261   65.850349
H   83.458977   69.209686   29.637909
H   47.227676   76.426987   61.365910
H   44.023842   78.209076   70.945320
H   65.217842   27.060574   60.375370
H   83.281822   97.617081   47.941353
H   95.245689   84.962822   10.059647
H   66.761711   59.517212   38.686649
H   61.640041    0.632373   98.972038
H    1.201216   80.308052   38.822189
H   26.173374   60.997669   24.358934
H   55.313454    3.865153   21.953840
H   19.279732   15.687218   55.897640
H   96.393372   12.010078   94.872711
H   18.576000   73.725349   23.066818
H    5.330647   43.398529   95.157013
H   94.563339   57.150768   78.213371
H   58.493565   43.207008    9.575920
H   19.253275   33.282879   48.376743
H    2.676357   16.379499   76.706818
H   62.761227   44.165138   48.668888
H   85.047089   37.687870   94.366287
H   17.746504   43.948956   54.032791
H   39.746956   31.515686   40.241531
H   74.634689   62.987164   74.711929
H   85.775711   65.504776   14.345484
H   23.932432   61.638855   40.208225
H   74.294571   90.952850   65.847900
H   93.691238   45.095348   31.925774
H   76.309998   28.725384   68.028595
H   84.749168   66.469780   78.897278
H    8.400537   44.450928   61.860405
H   23.296360   12.772257    1.545066
H   78.287964   75.233475   40.682983
H   57.353394   49.353565    2.264770
H   19.351488   40.525505   95.604698
H   94.298828   25.272947   70.950584
H   62.126812   10.854008   46.488396
H    0.260066   57.898708   90.952934
H   63.019028   67.076424   99.168785
H    3.997960   54.650478   49.819176
H   18.825918   43.977600    3.905586
H   53.509789   50.894253   72.145836
H   41.577351   95.029121   83.886337
