100
TIME:    4.841, STEP:  4841
H   89.945717   78.077003   94.713943
H   66.778664   67.191971   83.346619
H   62.967056   22.184708   66.521233
H   82.289154   33.202019   74.812263
H   51.810654   60.785004   34.444336
H   52.953922   95.963478   58.167362
H   99.254265   88.224915   69.025513
H   39.393242    7.410587   63.710415
H   34.626915   20.851105   95.362740
H   42.547859   85.892952   97.256500
H   49.957001   61.030674   73.439240
H   71.074898   66.344978   48.341087
H   35.152817   68.845360   43.995850
H   15.383590   90.154549   25.642191
H   39.385338   37.609467   18.069386
H    6.877327   88.317398   31.196190
H   34.822792    2.166221   14.083677
H    4.589532   59.269733   31.711409
H   20.668613   81.439499   18.405420
H   62.089432    3.011930   45.930397
H   77.004921   74.280975   25.851551
H   26.491730   50.510483    7.022380
H   21.109703   55.250679   93.842743
H   69.260132   94.740692   47.538681
H   56.441925    2.243172   72.291725
H   24.478312   83.544785   35.192608
H   44.634247   41.242664   96.018776
H   24.072590   82.401230   26.789461
H   16.434334   88.305595   28.334900
H   86.619141   71.024864   68.234230
H    6.578088   56.156673   26.374428
H   71.420937   18.761497   51.108421
H   11.350384   14.291826   33.912468
H   82.644974   30.073883   67.807564
H   60.437256   92.977493   19.511818
H   93.457825   64.596565    4.207485
H   44.113731   27.248512   89.917282
H   63.902386   70.362572   64.056053
H   40.733006   75.940483   75.183517
H    7.225710   58.985863   18.913763
H    4.404109   22.290426   56.397564
H   96.538963   29.124063   30.233820
H   52.939205   92.529984   51.143761
H   70.228394   93.898865   54.062958
H   36.734921   40.889755   70.367943
H   15.632120   55.251484    2.827036
H   79.554977   88.107445   71.935707
H   56.497952   45.230698   68.111580
H    6.539557   31.518040   51.365807
H   27.407963    4.414465   45.077728
H   43.175282    2.275804    4.458731
H   40.395409   14.530386   56.260422
H    9.288257   50.078491   21.710855
H   64.582024   28.218460   45.435814
H   55.347504   82.844246   41.522610
H   99.623398    7.441461   27.827744
H    3.151172   49.861794   16.406975
H   65.584610   19.714933   88.861557
H   72.075325   43.313583   39.836884
H   39.562382   99.882462   25.921028
H   65.074677   53.441944   36.953217
H   27.098604   82.882736   76.315231
H    2.715370   76.941818    1.508552
H   75.463112   68.134140   95.704636
H   24.469305   74.202148   46.390568
H    3.955677    1.612696   32.421028
H   99.165527   15.729087    0.784950
H   45.964851   94.398636   97.630394
H   98.175705    1.942946   56.614731
H   28.465315   91.630371   91.539368
H   68.308876   66.018356    4.075527
H   74.803925   90.861435   11.056716
H   91.348679   78.850166   37.625687
H   23.639484   43.031689   15.517796
H   95.575935   35.541340   68.378632
H   40.103119   17.835005   70.190567
H    6.485994    6.960236   76.664146
H   59.419308   34.179035   81.790398
H   93.657249   39.299183   71.696663
H   62.113403   45.302837    3.864810
H    5.602857   79.364029   69.324181
H    4.550683   75.842972   81.975853
H   24.078447   88.077942   90.975937
H   83.202621   26.414103   21.266739
H   16.612501   46.078156   78.471794
H   39.876766   86.872643   77.956879
H   90.474159   51.372787   54.381119
H   33.878113   17.712496   45.399002
H   56.148300   24.632868   88.597664
H   38.329159   10.102509   97.272385
H   22.136375   34.832081   35.694866
H   36.483875   59.568665   25.769255
H   95.771111   72.775322   93.366501
H   15.128352    6.874655   53.221546
H   72.892784   16.101898   27.326645
H   93.768311    4.566337   17.405251
H   78.346672   45.495632   58.778656
H   24.635115   57.455902   78.568718
H   78.099091   57.717945   39.552834
H   39.903698   54.403835   31.391272
