100
TIME:    0.463, STEP:   463
H   86.011879   79.561897   98.722122
H   88.391014   29.847836    7.206288
H   87.719421    7.214244   17.903488
H   81.554321   13.574274   14.784268
H   91.024002    9.869012   53.151161
H   20.836712    0.709732   24.597738
H   28.705101   92.601082   26.659975
H   83.495407   28.657429   65.683922
H   42.246574   41.777893   70.943932
H   62.187523   23.033733   25.820314
H   57.187897   84.872437   95.151161
H   38.169498   46.898399   59.972084
H   13.811353   33.695374   79.110130
H   32.156773    3.649732   92.474022
H   86.133812   28.666529   28.515951
H   82.907578   71.240669   94.606918
H   86.842049   12.615921   15.510104
H   11.038507   72.184921   83.494919
H   52.473946   97.775192   87.755600
H   80.116402   95.824432   47.774818
H   36.801468   10.123734   44.676109
H    6.743274   44.711044   79.832344
H   79.562309   90.856667   19.103016
H   76.023804   42.234715   72.689209
H   13.024313   49.455135   39.977554
H   44.536007   13.813762   45.776184
H   22.153387   23.230278    9.153822
H   93.474693   78.050461   82.078903
H   21.238770   91.099205   35.285339
H   18.747011   79.380508   20.195660
H   34.314854   63.562126   72.773949
H   94.991577   39.719055   56.401848
H    2.970270   34.606468   39.507652
H   97.664635   31.291412   52.245522
H   69.263237   23.921066   52.920959
H   12.811048   20.856771   19.051214
H   24.207069   87.579445   44.947826
H   44.852989   50.480000   55.113010
H   29.905083   70.624306   97.749817
H   19.584354   68.839500   74.462700
H    3.601650   72.066185   53.249126
H   90.009361   32.637390   24.552526
H   15.229096   66.276413   34.916290
H   49.793457   20.530855   26.001583
H   16.494007   13.624207   95.727234
H   72.038185   71.908012   85.133949
H   40.968922   50.718029   31.579535
H   56.264141    0.150342   97.225784
H   78.563042   94.104111   26.004320
H   35.600376   37.796551   51.281189
H   43.509296   24.944124   58.298679
H   27.633284   20.775669   43.667419
H   18.483438   24.693359   75.980537
H   65.966568   99.647575   52.247089
H    3.899505   99.093430    4.334915
H   94.145554   12.045353   76.865189
H   25.604156   76.187218    0.022484
H   91.582947   33.162270    1.628746
H   26.792839   58.331589   75.939392
H   28.465538   63.376755   50.440758
H   88.906784   57.037872   78.296143
H   82.478363   23.635818   74.406601
H    5.637362   75.580284    1.794322
H   74.833443   44.313087   14.569212
H   50.700302   23.864796   38.679436
H   72.902565   19.256001   73.562035
H   50.421501   64.367188   89.415451
H   48.383263   44.017014   88.336678
H   79.978569   16.518089   31.193867
H   39.765533   71.432274    0.757145
H    7.329437   63.902126   56.594456
H   35.790722   36.159538   90.520241
H   76.803162   95.405678   49.877316
H   19.999962   20.079809   75.691139
H   84.494675   29.302492   36.496876
H   36.604572   37.246475   64.774277
H    8.992003   86.414909   99.226624
H   53.732910   20.445946   40.010326
H   83.745491   52.146336   22.851070
H   76.819107   83.738792   81.033356
H   19.942371   34.071606    7.661332
H   76.062950   47.251297   48.063789
H   47.091007   14.985372   73.998352
H   82.020172   51.781101   21.140205
H   29.785837   19.922432    2.869878
H   40.636799   26.060604   73.935341
H   98.077431   69.689049   45.620770
H   63.408554   68.225121   90.926659
H   65.291451   68.393074   24.412594
H   25.400723   90.234924   40.763943
H   42.970432   98.432907   43.239452
H   12.544178   30.327700   42.345627
H   14.990917   41.503700   54.733849
H   91.978157   41.317192   58.035259
H   48.587208    8.256214   26.725449
H   32.163513   77.447929   43.534477
H   25.851423   94.251167   10.561365
H    8.565137   20.179840   48.627602
H   86.655907   38.846104    6.269126
H   67.995346   66.812233   53.092636
