100
TIME:    8.216, STEP:  8216
H   61.707512   68.574791   91.624039
H   73.570755   50.078045   96.149857
H   20.996431   64.995865   26.896500
H   82.855637   94.150383   89.815620
H   21.576647   31.305882   42.935089
H    0.607660   92.307091   92.403938
H   22.369999   16.120958   32.955067
H   74.124893   99.391075   53.828674
H   51.662910   96.357666   82.919571
H   50.351784   34.354588   29.410095
H   36.022720   96.831375   48.342461
H   42.260254   35.516064    8.105537
H   19.842812   64.681259    8.623892
H   48.273735   79.751869   82.481407
H   80.397530   36.139206   55.792351
H   71.175568   93.127464   51.041290
H   63.425179   25.395588   21.323248
H   76.759140   95.048576   14.719503
H   73.230042   23.024105   96.213684
H   71.160812   31.338316   75.716103
H   76.727638   38.288799   34.247890
H   50.056263   54.990845   19.609955
H   76.046761   27.803995   97.280014
H   55.673721   35.115448   96.881851
H   35.732246   34.590538   97.216957
H    8.868282   83.895798   17.719887
H   53.604713    0.946484   62.989773
H   39.299469   39.934803   38.349693
H   89.819572   94.512070   68.797386
H   16.031364   87.493210   36.536591
H   39.406895   58.799492   59.355309
H   84.520622   25.512859   38.667778
H   49.081409   67.360725   37.959122
H   25.247818   20.775215   25.623777
H   76.482094   37.603508   24.919966
H   86.840775   28.941862   93.596443
H   67.819481    3.646586   55.853970
H   24.410362    8.593649    2.222608
H   98.270622    2.405931   48.120689
H   89.338058   43.029083   84.452637
H   73.746262   38.092796   35.909878
H    7.814198   73.822205   99.402550
H   81.994110   12.773163   94.924171
H   54.723652   50.548859   84.052032
H   43.978409    7.732738   59.176262
H   72.070457   19.620895   16.539694
H    5.925775   71.652046    4.330981
H   56.689083   79.992126   76.937080
H    5.194366   52.000259   16.733891
H   98.237061   55.786213    9.069230
H   42.937443   76.441597   40.036255
H    4.425843    1.354617   34.707794
H   79.294106   69.647888   25.699697
H   86.428528   73.155319   94.366470
H   86.624458   78.616241   70.227386
H    3.828777    3.891289   12.934769
H   17.111313   52.477303   37.397499
H   14.275691    0.987074    1.928786
H   38.253170   85.923698   80.744202
H   16.848251   59.298313   29.928001
H   77.972031   96.490112   73.811317
H    7.316048   51.468704   23.606079
H   31.844418   46.638214   70.074677
H    7.217350   86.519073    4.072817
H   58.431900    4.645327   60.689316
H   96.627205   33.831535   31.978397
H   28.383799   32.411327   63.730694
H   12.830563   87.418755   58.974915
H   66.388123   59.436974   44.940186
H   96.887428   61.310970   84.417603
H   61.136906   36.384674   63.596687
H   96.700165   78.796288   58.274570
H   71.292496   11.915308   51.093258
H   49.340466   29.429550   14.986872
H   58.243958   40.412830   24.244162
H   19.887247   34.141090   43.096558
H   12.970775   14.684319   36.453568
H   17.980997   13.499630   68.181091
H   55.498795   29.385738    9.346834
H   96.605492   61.455070   13.105389
H   71.656990   14.280648   71.042023
H   57.817444   97.752518   99.653999
H   37.554665   44.518711   12.392896
H   15.397466   15.219948   13.013132
H   52.279556   34.960415   51.303917
H   62.203671   10.840423   12.327292
H   15.882920    5.982117   15.313911
H   88.164909   47.622032   10.390854
H   26.190586   36.718010   60.994514
H   39.934078   71.249039   17.919710
H   60.255268   17.072079    6.968969
H   86.199699   13.401297   90.075462
H   12.114866   74.039665   54.360474
H   41.310310   11.628041   80.791069
H   14.541229   13.789894    4.882067
H   72.529495   71.291199   43.081947
H   10.455149   39.177971   64.679008
H   22.418535   92.987755   13.944574
H   17.321526   72.280876   56.862179
H   49.537769   67.795212    6.266219
