100
TIME:    5.521, STEP:  5521
H   43.959389   15.718057   94.091385
H   47.998146    4.037557   26.221828
H   74.660324   71.106918   58.538555
H   82.403290    5.184399   37.538071
H   45.719955   15.289919   16.008476
H   42.406742   95.226784   25.509180
H   63.612843   34.142124   22.202471
H   85.946579   66.237564    1.273282
H   17.911217   55.471771   52.560448
H   23.965609   95.656746   23.885748
H   86.705063   88.392120    7.939190
H   45.120804    0.430048   99.938789
H   91.760513   27.725094   76.427422
H   81.714165   88.058601   77.391029
H   47.654991   76.869614   85.383118
H   79.536087   28.842300   74.749725
H   80.141090   47.141277   75.986755
H   19.130598   26.185474    8.139784
H   31.259892    9.964694   54.228481
H   43.770645   88.569130   92.228004
H   36.652748    6.583716    7.395283
H   91.683990   51.413193   49.114120
H   12.030156   49.720284   74.387787
H    6.077118    2.875460   97.035248
H   32.120636   48.317490   77.313698
H   21.378489   63.446373   71.247086
H   85.997055   12.974924    9.510670
H   66.694893   14.141304   49.269012
H   31.220100   50.000126   96.192261
H   12.693291   54.195030   22.292076
H   33.340912   17.134556   72.574989
H   14.356407   99.974960   88.157448
H   59.250088   64.539665   95.172234
H   11.376575   67.756035   39.159492
H   43.534790   41.574905   60.917152
H   52.568531   17.857029    2.068721
H    9.335092    2.343596   43.498455
H   35.799053   57.919239   12.043865
H   12.028047   61.123589    9.286585
H   43.176807   95.325417   72.416039
H   57.930298   45.620811   72.418068
H   35.424461   59.644753   62.176266
H   58.796444   96.607742    0.262261
H   26.809376    5.312674   20.550386
H   77.749321   14.062573   28.557688
H    6.857615   68.221451    5.590846
H   84.867477   25.089069   78.462196
H   56.534267   52.234482   10.186072
H   26.414787   75.200073   24.238560
H   41.669743   14.764502   97.519089
H   43.123402   36.626923   11.627234
H   73.442894   51.432362   11.617783
H   23.393780   54.021362   82.218437
H   48.836288   17.121353   75.443138
H    1.204263   42.439159   47.307217
H    0.472109    6.726167    4.678940
H   46.258553   30.240822   81.080437
H   14.950690   55.497459   71.346909
H   25.706450   72.044838   87.633095
H   94.690399   52.151348    6.580208
H    7.969206   21.820320   83.935204
H    2.966555   76.553391   45.547348
H   48.881641   30.540369   54.878906
H   22.156345   71.838364   77.245773
H   51.461685   19.890652    9.715552
H   62.182213   67.807823   72.627937
H   44.608643   39.237644   33.616898
H   98.992363   33.289829   30.138327
H   32.068058   53.082481   13.964341
H   42.240089   25.832012   90.107483
H   46.716469   19.751877   95.918922
H   18.735722   68.293686   60.844749
H   47.012131   45.214149   20.188858
H    8.672138   99.995506   75.114616
H   28.361303   36.511494   19.927387
H   56.180695   61.418449   24.436571
H   68.226830   48.022953   88.689903
H   91.366943   89.715767   19.343279
H   26.265285   37.301807   79.281502
H   28.767952    8.263700   45.282104
H   18.909151   86.398941    9.966535
H   55.577148   80.275345   25.109350
H   67.091682   99.450012   55.736553
H   29.986238   84.602829   59.158062
H   83.501961    3.542217   12.553284
H   24.224606   11.848849   25.178360
H   35.889839    1.931129   86.806046
H   44.821861   63.278736   38.333549
H   70.259628   86.772102   83.036140
H   78.208496   82.126999   21.580347
H   49.964745   71.548538   50.055218
H   86.796989   10.711488   38.723663
H   39.360123   93.176735   45.951984
H   80.850929   48.125805   99.071770
H   61.136803   55.192875   42.952091
H   49.933563   77.713593   82.281982
H   24.371210   84.519676   19.671600
H   27.130537   63.245697   67.684319
H   45.705292   60.649158   82.595512
H   82.141342   36.956631   65.886169
