200
TIME:    0.174, STEP:   174
H    7.443093   62.694035   14.211018
H   27.376024   31.914631   87.217842
H   19.521042   66.249344   42.097343
H   15.617751   76.202339   46.225578
H   15.910882   82.056488   54.607422
H   91.765686   54.606339   67.503166
H    2.403025   55.350960   48.373882
H    1.409601   86.036346   27.415051
H   84.748131   88.495682   49.329487
H   13.184536   75.823387   98.675758
H    9.893190   93.184273   90.876007
H   30.504883   40.261208    9.597480
H    9.554286   84.817482   63.996696
H    7.523365   52.928478   39.085445
H   22.808397   71.436516   43.140984
H   31.224163   28.685734   55.746765
H   81.102585    4.627426   18.636452
H   38.129448   79.994232   44.695377
H   62.829487   32.091335   41.512253
H   89.846275   80.611046   40.029209
H   57.293007   73.463593   28.864231
H   91.498360   46.291634   73.118073
H   96.981606   63.021332   50.719841
H    7.214677   87.463577   91.791603
H    0.377759   10.049494   47.765408
H   18.715727   59.407436    9.136374
H   97.617775   57.472446   46.428207
H   92.995636   67.406792    0.557609
H    8.288800   58.535835   38.724831
H   96.031891   18.996290    0.908915
H   13.447660   48.691868   16.114120
H   33.126240   61.959457   91.978203
H   28.718010    7.565367   72.372986
H   98.610909   63.505913   37.136688
H   51.155704   92.528183   34.721119
H   35.217163   51.426781   78.719658
H   84.370148   75.853516   85.459450
H   36.179607   43.048061   18.134930
H   55.512924   48.763981   42.964569
H   90.715698   39.959896   66.274506
H   80.484673    8.306881   99.333527
H   10.054216   44.490868   41.788147
H   77.890213   89.298088   47.877552
H   37.428299   60.028671   16.387865
H   26.522028   74.281494   41.982170
H   41.988571   15.556135   41.970081
H   78.730408   29.445663   94.731834
H   91.722618   65.551613   50.020340
H   84.527924   31.256771   61.118748
H   64.479202   17.503660    8.504719
H   79.778275   71.331490   30.484371
H   23.661104   34.561993   62.122414
H   50.397003   96.311012    7.064748
H   23.388874   80.790909   80.725792
H   79.992538   77.852753   92.907860
H    6.151728   73.975990   76.487030
H    5.618839   16.495705   50.362568
H   66.687607   57.045109    6.494658
H   29.573828   73.202499    5.530200
H   44.629772   96.359779   68.214310
H   50.633270   16.664083   44.164810
H   88.750854   16.268534   48.560375
H   69.629028   23.839231   87.111572
H   22.526920   65.058174    2.193926
H   70.287415   75.095154   15.230736
H   41.328651   13.997023   31.676956
H   88.640480   24.554150   84.471535
H   97.711021   91.299873   85.964867
H   14.174906    4.961352   62.815178
H   45.616886   40.479649   50.986118
H   58.494118   75.450607   71.515930
H   33.995281   25.556654   45.226826
H   75.399063   24.522076    1.705698
H    5.715184   10.415391   58.651371
H   78.341385   99.803169   70.716034
H   51.645531   21.406734   63.308754
H   95.706543   27.493174   73.079140
H   28.999802    4.768114   50.224403
H   11.028782   26.752878   36.400234
H   69.270584   91.035034   97.391632
H   40.566906   31.217516    2.113291
H   23.734432   69.777092   89.897575
H   11.257211   12.942336   92.210793
H   26.826323   59.701424   91.700409
H   41.258492   98.625946   59.652596
H   22.807766   88.083557   29.156731
H   32.897171    2.646580    1.620018
H   75.880348   21.000738    8.952813
H   63.669197   71.886513   76.926140
H   23.774704   83.088860   55.591610
H   44.009521   34.323040   81.048050
H   84.515160   87.956390   96.927719
H   44.124401   17.606457   97.609543
H   62.987423   96.804817   67.292427
H   23.452518   57.818977   65.190956
H   72.005287   26.233673   32.164867
H   78.410301   16.561972   95.486740
H    8.709074   27.413124   47.968678
H   38.513420   70.439178   52.647354
H   66.056862   96.854843   27.234293
H    6.921597   78.601562   65.831947
H   88.118050   75.658051   66.228661
H   21.811277   39.581909   29.580482
H   18.704481   67.817627   87.541443
H   25.426229   28.340080   22.947742
H   84.810234   30.004225   46.980743
H   62.531826   29.277269   56.566391
H   65.139931   31.740311   21.293673
H   71.119270   40.922760   95.941154
H    2.246591   28.980608    5.214243
H   46.326187   96.640312    0.749415
H   83.343826   61.685379   89.759377
H   58.240349   79.508774   95.370964
H   63.447746   20.820225   76.655945
H   66.052742   79.220245   29.086803
H   16.731976    7.728136   75.956955
H   35.288517    7.513348   83.410690
H   41.105968   23.747890   35.297783
H   16.355844   55.235691   86.801590
H   69.040886   45.357601   46.880699
H   39.865730   21.320850   89.682533
H   21.136868   29.043522   46.246765
H   30.645208   24.606136   22.071260
H    5.049710   69.694023   20.755398
H   78.891258   10.586209   94.995979
H   45.304348   60.546482   26.805719
H   97.027168   48.881760   73.603683
H   76.872322   87.052330   34.445156
H   91.655510   54.872715   86.394341
H   64.546204   24.462170   65.377205
H   45.944725   87.542267    0.889127
H   84.233315   85.396774    7.770548
H   92.653267   79.383659   96.884201
H    4.156898   11.310747   48.894630
H    1.165630    2.563490   59.449707
H   64.115936    1.711555   84.653938
H   68.783447   86.396339   52.053062
H   90.655388   66.281410   84.241203
H   44.588104   43.410645   71.565697
H   43.412193   12.255372   97.291382
H   47.350185   65.009689   12.778018
H   60.276657   39.005478   44.708324
H   57.127167   55.546200    1.610357
H   60.737343   28.916866   77.030739
H   37.199627   71.955963   46.910374
H   43.521881   60.838486   33.007141
H   43.170280   97.066826   47.754467
H   44.454613   75.875465   69.203636
H   63.420872   67.547653   98.600571
H    7.353714   87.948463   92.468254
H   78.546577   60.189068   51.842449
H   31.009130    8.935900   50.220619
H   73.109695   34.306438    5.781609
H    8.165188   99.627747   77.583488
H   10.995388   52.136036   59.559067
H   61.542824   43.365253   52.030434
H   58.620403   58.904423   79.974289
H   45.107719   37.718842    8.177887
H   15.402477    1.983018    5.052466
H   64.419487   59.636749   75.708267
H   53.307640   87.090736   85.170723
H   46.702892   23.398331   36.115746
H   62.378384   37.447426   37.259495
H    8.852085   18.240780   74.022644
H   59.586128   19.848867    9.176048
H   10.776576   66.539009   62.662609
H   76.036324   98.634468   51.522030
H   23.574558   27.929703   45.283527
H   93.176155   28.384844   37.012779
H   23.461029   10.957778   91.146576
H   80.625854    4.848926   35.981613
H   48.442970   67.898346   57.255440
H   36.397728   80.290176   92.281082
H   72.036034   76.126404   72.715225
H   74.505432   95.533035    2.334567
H   98.869598   47.304344   23.223425
H   36.095760   50.859406   84.147057
H    1.145061    9.137917   64.036270
H   77.289436   22.913851   69.906769
H   89.440102   53.747124   85.453957
H   82.622787   82.824287   43.253838
H   17.896433   30.025478   67.206726
H   68.673508   90.234238    4.763752
H   50.043816   25.098104   74.762215
H   84.669464   91.197006   78.668747
H   97.878716   35.666855   83.623878
H   29.053995    5.655109   97.802872
H   93.591843   64.428902   23.217186
H    8.529690   60.879086   65.789108
H   48.413383   58.632336   64.869156
H   44.667355   33.207947   79.772774
H   48.193970   83.135590   25.465048
H    2.634460   15.953860   56.294334
H   36.256672   60.896812   31.983179
H   87.159531   57.203312   22.032177
H   75.167007   10.221495   30.470604
H    9.022571   83.759758    1.239098
H   30.827600   98.717903   48.828049
H   12.793435   11.427221   80.968819
H    8.696138   37.228710   98.665741
