100
TIME:    1.001, STEP:  1001
H   49.628578   30.224434   98.229568
H   73.425591   59.019176   41.142971
H   96.963013   45.919674   11.586487
H   81.644623   91.408104   85.295280
H   86.205185   52.992088   38.563362
H   12.494083    0.124203   77.878380
H    0.508887   28.929838   68.732277
H   41.209671   75.200638   16.285027
H   29.021507   90.051239   37.077599
H   47.484795   30.756565   46.889297
H    7.144440    6.519979   43.327942
H   17.634113   73.865715   21.676588
H   79.588211    1.145332   25.637915
H    5.518230    1.990955   33.416775
H   92.676567   80.611206    2.654312
H   61.276260   24.181896   49.948715
H   43.587624   48.194717   64.493889
H   22.535088   46.022110   64.843552
H   60.851463   20.345881   16.099848
H   65.553230   84.544952   84.478279
H    4.875829   56.565437   30.075726
H   58.330250   45.421143   34.022160
H   72.379234   86.481148    3.709480
H   26.037811   48.687168   32.731682
H   93.783073    6.787670   43.948097
H   42.069134   97.783600   95.349579
H   75.762039    0.865726   19.829924
H   48.079102    3.162564   99.860092
H   32.936920   39.910252    9.854939
H   39.375484   66.065140   62.965176
H   55.478245   11.808176   30.200977
H   28.960791   24.856247    6.596473
H   40.866955   95.244789   87.974937
H   20.396706   81.987099   29.580061
H   55.890404   83.252144   85.682602
H   59.588074   63.118420   17.200033
H   75.807426   67.877296   87.340279
H   22.618294   40.633030   93.079735
H    5.718255   59.139595   46.186234
H   68.909599   18.472723   16.790300
H   66.832916   90.528740   65.927658
H   41.657005   56.784836   49.828739
H   19.863035   69.502640   73.775703
H   15.438826   29.546640   78.606087
H   69.825294   92.397079   41.766891
H   65.167061   82.021782   87.243721
H   46.649708   79.739532   36.176704
H   56.292873    5.689664   30.514112
H   94.291924   49.545753    4.542796
H   46.883961   45.985256   13.654190
H   43.468250   73.003365   63.971256
H   53.779335   70.854416    8.347214
H   29.643885   27.812866   44.733681
H   53.509708   90.871910   75.988174
H   61.071373   46.258160    8.900272
H   94.818710   11.479942   58.550400
H   59.709396   60.663567   51.190910
H   51.521912   82.355415   87.771439
H   69.222740   81.062943   34.635845
H   92.963547    4.727164   35.138756
H   22.844641   32.020248   36.349693
H   63.383698   18.628189   50.063889
H   42.130295   38.893242   64.885597
H   11.775713   47.239677   99.960899
H   72.055061   80.896263   88.782433
H   39.852211   92.510475    5.372625
H    7.256201   82.969299   15.390545
H   11.219953   74.785202   14.056190
H    6.790788   77.860855   97.450600
H   50.663284   98.489891   99.625305
H   90.245354   27.293337   50.142002
H   91.430252   18.304466   29.909754
H   41.725128   68.791359   36.081707
H    8.158830   86.034561   43.716194
H   10.434749   30.068003   77.280327
H   49.324772   71.728416   28.575401
H   57.840054   39.786491    8.746420
H   79.009125   85.268120   69.722839
H    9.532038   50.570164   28.849964
H   50.434647   54.438713   34.684052
H   30.470707   39.637463   39.815594
H   16.428577   50.764847    3.074137
H   81.132637   23.964331   25.240055
H   19.029142   97.818459   71.999763
H    3.588540   86.270828   50.716698
H   28.253178   45.823704   11.295822
H   34.009254   30.572075   71.274612
H   72.069290   25.151627   85.336174
H   76.456001   38.437599   20.010395
H   77.835373   68.094635   59.998165
H   64.987587   27.483297   54.601025
H   52.350819   70.790901   52.594849
H   49.509712   57.622520   96.354637
H   43.978622   73.951729   94.311165
H   39.286152   60.067078   39.087669
H   76.600067   56.202446   15.746229
H   83.147873   25.125578   79.620529
H   10.540483   24.760590   40.020226
H   61.026695   41.165211   61.201221
H    1.406917   52.992832    1.275006
