100
TIME:    1.962, STEP:  1962
H   84.640533   42.095871   97.349747
H   46.693672   11.120909    1.762643
H   13.479849   15.058223    0.303591
H   81.805923   51.816124   32.618916
H   77.597595   30.020466   12.507158
H   97.592293   99.082512   73.049767
H   50.141155   93.820656   43.883812
H   65.676964   58.338940   28.049553
H    5.398293   97.654984   76.586815
H   21.223619   44.554771   84.519676
H   17.754562   45.187733   50.759258
H   80.956726   22.035357   53.271523
H   18.459911   43.003746   30.122364
H   57.934746   99.028419    6.548328
H    4.364703   94.773773   56.462166
H   22.637371   40.125496   70.178482
H   66.325592   11.747200   51.989105
H   43.071594   99.288399   31.527580
H   75.821556   60.663712   66.726654
H   39.658127   64.145859   49.914711
H   47.848770   60.894962    3.992676
H   50.477238   46.689552   52.194901
H   59.548500   78.665398   76.214798
H   36.750481   60.212833   61.360168
H   59.411369   30.569633   51.037994
H   37.662693   69.145401    5.274377
H   92.893227   60.921139   38.900059
H   66.993118   48.019238   31.625128
H   53.832687   27.099764   64.427452
H   76.225349   42.280624   39.361568
H   93.281258   97.987579   54.157383
H   89.639160   98.306328   17.631874
H    8.557774   24.932735   74.549408
H   61.000481   93.917252   89.095688
H   32.003242   10.608056   44.199890
H   43.143200   38.609402   13.895059
H   67.979523   32.684425   63.063236
H   82.897789   23.043926   60.893078
H   62.518105   38.625084   54.079346
H   78.394508   28.507113   92.400162
H    1.161240   23.504568   88.568405
H   55.287811   99.911995   94.978256
H   28.140692   75.265472   43.190453
H   54.072060   45.654152   72.567307
H   86.466423   54.478603   24.003958
H   52.775036    0.338933   91.137245
H   56.796986   31.579737   44.388374
H   56.344196   15.583994   89.975395
H   22.381941   69.955711   66.211288
H   67.038109   60.612293   46.439137
H   43.394932   80.224907   74.103867
H    0.483174   81.680450   45.260929
H   49.579178   33.385071   88.919853
H   31.257549   75.196419   18.394030
H   84.565369   30.504045   17.054884
H   96.021133   10.469980   25.835693
H   20.634531   32.934517   42.590034
H   79.962494   91.600632   63.019119
H   45.015060   21.667994   60.860619
H   29.547047   78.594086    7.806176
H   83.464920   87.329903   61.421635
H   29.276234    9.682039    6.579065
H    7.313473   73.359505   98.957199
H   77.767029   52.467285   73.874184
H   10.196456    4.141853   78.278900
H   80.816566   44.736153   62.194103
H   30.154070   16.194777   61.787792
H   44.837090   29.746616   59.997547
H   54.689423    8.809509   37.179543
H   70.131653   46.826569   97.601715
H   59.730202   61.906143   38.616337
H   12.191604   86.410004    0.269628
H   79.065369   21.258251   11.439365
H   87.011589   25.219946   86.601067
H   56.766182   31.435392   50.131084
H   72.043571   33.318115   63.910496
H   45.092072   56.494682   25.747862
H   24.158657   22.429888   22.793453
H   55.598038   47.754734   39.568047
H    3.305124    2.098729   51.893105
H   49.276897   49.579449   97.253288
H   88.534012   57.040909   22.716448
H   41.938580   40.004578   16.770542
H   85.138069   80.052467   84.222870
H   56.796509   26.159721   57.558533
H    6.133070   81.122993   78.030434
H   98.192253   60.699539   17.099180
H   87.539490   48.212036   75.345650
H   96.398628   84.931450   12.147886
H   92.871048   28.553223   94.355202
H    4.315710   79.373276   74.895584
H   23.455477   43.066532   70.905235
H   11.169914   86.420395   70.700760
H   36.862705   32.242062   59.105057
H   22.670124   73.986145   61.171196
H   55.974747   18.254129   66.109070
H    6.868314   80.275734   24.353058
H   14.068934   32.942932   24.643585
H   15.247948   45.307705   80.703018
H   61.088181   28.307049    8.716942
