100
TIME:    3.434, STEP:  3434
H   85.095123    7.106064   96.002090
H    5.746757   90.930588   94.615738
H   38.782097   20.959560   83.030983
H   82.052994   91.168633   51.934780
H   64.413025   48.007748   72.594955
H   74.771980   97.487785   18.826277
H   72.993248   93.217186   58.996208
H   49.980667   85.686600   92.895103
H   69.213661   56.128311   83.929146
H   80.999046   65.690514   42.162491
H   80.832718    4.417079    8.969572
H   24.774078   95.819534   48.492882
H   24.826008   53.945648   83.817162
H   85.049614   94.491310   18.568615
H   22.271400   63.288559   85.703285
H   63.450806   11.378958   47.989601
H   47.965340    9.103930   85.998917
H   74.524376   27.705391   80.492859
H   98.754173   22.413340   44.277973
H    0.003338   32.891415   50.135307
H   60.498291   14.351387   64.035248
H   91.601273   48.642670   26.841431
H   39.895180   66.693718   34.100540
H   99.985664   77.867126   52.035580
H    6.765132   13.825447   61.900673
H   30.912275   25.288244   67.301308
H   65.962204   99.728714   68.108925
H   42.790760   16.727203   80.282097
H   85.839523   60.651260   94.845924
H   32.667252    5.848201   56.381592
H   51.205837   29.989237   37.691795
H   82.582130   57.631332   81.361488
H   12.243389   17.234512    7.158795
H   23.196198   59.017128   27.081486
H   95.410446   99.335899   33.834785
H   71.129417   54.244564    8.833364
H    9.164636   78.774887   79.051140
H   22.058853   96.104042   64.767982
H    0.120808    6.597223   11.532286
H   39.749020   90.703537    8.213820
H    0.562760   74.011154   23.249250
H   22.992821   65.979980   64.133408
H   40.819889   84.092621   49.514523
H   60.074829   70.324615   16.492605
H   58.780682   96.404419   49.967709
H   33.784313   28.415089   97.111855
H   68.562790   11.590085   58.427208
H   56.422810   30.739511   81.054405
H   65.406235   48.045044    7.489524
H   97.899437   83.007545   43.485424
H   43.282627   38.113312   89.624374
H   72.018784   45.089905   48.627018
H   80.108894   41.920227    3.427440
H   97.172142   51.179680   83.349884
H   67.373062   59.531578   29.554674
H   97.862930    8.922323   75.725342
H   13.953240   90.459892   82.589363
H   70.353508   52.588837   25.104034
H   61.107925   83.863266   47.853580
H   32.410194   91.736176   65.939461
H   76.319893   18.875870   46.653568
H   77.035240   95.978897   39.977364
H    7.194116   72.953056   97.990776
H   78.846672   60.474609   33.907719
H   68.625603   86.576180   15.362557
H   90.389229   71.558540   49.228683
H   12.052097   67.082458   32.856609
H   43.155983   13.931186   30.367659
H   28.052071    3.040984   44.858700
H   99.959778   20.862463   94.502106
H   12.986887   61.750496   20.955307
H   90.818283   37.557465    8.042708
H   83.087997   48.445568   73.701653
H   54.618465   32.068703   99.118065
H   27.738932   33.533978   61.718540
H    6.837418   27.659468   64.863556
H   78.740334   28.910027   51.781437
H   93.315887   26.179300    4.085735
H   26.185835   43.431988   55.997269
H   31.115608   21.930298   25.078934
H   78.077560   64.807968   85.231216
H   98.980545   66.654190   99.628052
H   35.068050   64.576843   56.971409
H   86.403702    6.013536   49.773407
H   85.121658   34.085949   14.864517
H   72.260193   35.190498   80.250519
H   96.503807   53.673149   87.289612
H   11.233118   30.359863   60.030205
H   26.949375    2.973041    0.105148
H   62.727795   67.993240   46.973877
H   64.556030   58.856373    5.981606
H   32.374397   53.761223   98.958946
H    5.580615   30.554075   84.560936
H   79.137215   21.529728   58.354485
H   97.217293   42.133205   94.997368
H   77.555893   60.126228   90.078209
H   90.027863   64.750816   39.697350
H   19.471792   45.476135    1.089441
H   45.125511   51.652920   57.404266
H   52.508869   90.512032   66.932480
