100
TIME:    8.456, STEP:  8456
H   45.477043   46.565514   91.404312
H   66.942337   63.084026   11.282462
H   25.121798   82.262711   24.079422
H   82.895920   84.262688   76.661324
H   19.426073   50.542942   36.427521
H   96.886719   92.047081   16.171669
H    9.791795   32.327621   51.723377
H   55.261368   20.153749   31.791931
H   45.763252   73.282715   67.813370
H   43.796608   37.800632   38.807320
H   13.698502    6.488168   25.225126
H   33.099487   47.546093   91.022133
H    4.538565   50.155418   84.772964
H   36.390190   79.012123    0.744413
H   83.312569   14.701218   44.251213
H   61.525909   72.136253   31.119373
H   44.125862   41.269001   43.171394
H   81.889755   83.370110    6.400520
H   76.969055   33.093075    8.857776
H   64.693527   26.241575   92.056435
H   62.485695   14.395367   27.734228
H   73.065300   55.309448   99.171799
H   72.842415   25.853006   90.413559
H   33.373306   37.986542   79.058365
H   27.148781   15.556725   98.989418
H    7.736481   76.820602   95.134674
H   32.908302   90.970779   67.750900
H   19.049250   51.137196   46.283653
H   95.038078   16.286608   57.452171
H   25.233330   81.553268   55.616180
H   48.853306   80.321266   40.367271
H   99.674431   18.882610   16.449760
H   65.987320   49.800911   59.580215
H   35.388809   98.780853   15.513609
H   70.509193   19.432121   39.522625
H    7.703477   47.741150   92.842049
H   90.839500   94.857185   74.765099
H   14.490694    4.201406   19.158112
H   88.141228   97.176842   24.862915
H   66.731857   20.560678    3.334633
H   57.343674   46.327049   41.564175
H   87.588196   74.763367   11.654977
H   84.059540   14.212830   12.259630
H   39.399555   54.579010    7.518268
H   23.160759   98.264824   79.713799
H   68.972313   24.197617   17.514730
H    7.802112   84.703804    6.635733
H   56.703732   82.464050   91.786934
H   12.209229   32.124161    7.159798
H    3.275225   59.439167   92.288811
H   42.920963   53.271431   42.566772
H   16.090193   79.085266   18.952641
H   84.270912   71.039490   11.760794
H   80.869446   69.240524    4.956873
H   67.515572   99.647736   72.267181
H    4.127697    3.638832    4.764603
H   32.325546   45.552254   60.223427
H   96.404968   78.322243   95.746971
H   57.182613   96.064079   62.319962
H    1.011025   77.744827   23.101830
H   93.111191   85.328003   55.098812
H   98.797935   49.234818   12.746872
H   48.138966   30.261164   53.617157
H   23.697769   87.826447   97.556931
H   67.958115   85.477448   83.039169
H   81.883553   21.900383   46.169071
H    9.127512   40.707836   75.317612
H   96.251846    1.144406   70.448303
H   78.348572   42.192101   29.887085
H    1.761737   73.366226   83.908569
H   53.514225   20.054169   60.718269
H   76.935760   70.827538   75.866745
H   55.644302    0.043811   44.939083
H   44.057873   14.240036    0.727417
H   69.805237   40.766224   42.441181
H   25.561686   49.523781   26.948198
H   34.768387   93.911621   40.710770
H   29.255716   97.807487   81.437927
H   67.007454   28.680782   12.025209
H   84.835472   48.381340   92.429344
H   76.355476   16.763559   85.386505
H   75.827072   99.308914   79.574654
H   52.735939   48.532383   35.249950
H   31.909000   35.757790   91.092644
H   40.593765   19.947598   28.038692
H   56.679379   19.656036   28.993652
H   31.911974   88.532066   26.758003
H   92.024773   28.416271    7.902442
H   31.171970   23.355566   59.031624
H   18.714560   61.375504   26.499117
H   70.077049   30.030453   12.037375
H    3.957269   31.450985   94.649437
H   27.499271   81.239372   72.920044
H   64.504318   26.188587   96.973930
H   10.391144   92.292221   10.396746
H   92.352493   61.813660   30.685707
H   91.405113   52.951164   50.876518
H   21.955278    4.863537    9.126154
H    5.888783   73.317253   36.759029
H   64.444443   61.636250   83.146927
