100
TIME:    6.534, STEP:  6534
H   75.454666   22.821360   93.163956
H   20.022354   58.933285   90.095009
H   92.080536   43.985725   46.644276
H   82.573318   63.449615   82.012451
H   36.646606   96.486343   88.542297
H   26.694546   94.129326   25.829830
H   10.523885    2.543649    1.420399
H    6.326782   53.875164    8.263036
H   93.009682   58.075943   88.794777
H   96.292641   10.202784   63.550266
H   92.478271   29.152029   10.361904
H    6.454735   51.206211   27.831394
H   27.118698   66.466637   75.770439
H   31.555737   84.936256   54.481289
H   59.967964   86.383751   36.682354
H   38.806488   40.241554   90.661621
H   98.681587   14.144855   68.204140
H   40.793797   76.894684   73.022011
H   47.034100   52.464134    7.599620
H   16.481041   67.052773   61.197716
H   76.539902    5.736339   79.898064
H   88.801285   52.757965   62.847824
H   98.503883   41.481621   45.405624
H   11.954792   14.993868   21.801470
H   95.891670   67.982010   84.794960
H   16.760664   33.498138   75.988625
H   98.644417   70.867996   29.612074
H   81.221542   61.424736   82.752609
H   53.246544   41.907330   48.306000
H   51.535358   29.123528    2.823267
H   73.210854    7.972453   92.429726
H   78.318054   71.982056   94.378975
H   30.602909   90.424187   86.431274
H   54.179085   74.920639   96.485046
H   18.343109   64.954567   22.584574
H   40.626797   97.199287   98.883492
H    6.494988   65.246216   23.318823
H   93.931007   39.378384   83.527687
H   69.271790   39.050774   11.119329
H   47.763340    0.491577   52.116627
H   88.699387   80.379860   96.283913
H   49.564087   67.226227   13.532674
H   67.518890    2.683394   73.431053
H   62.124233   22.315695   19.595869
H   89.879631   74.092453   15.242240
H   93.783287   87.542892    9.706312
H   92.781540   80.178848   88.184746
H   56.588367   62.668060   72.864822
H   56.022964   91.304482   83.830521
H   62.922024   30.184637   26.674280
H   43.052937   38.828308   22.305054
H   22.676388   57.433739   45.119850
H   44.407780   59.895081   23.383741
H   25.380058    0.591726   20.143497
H   20.548241   31.213177   55.924580
H    1.733848    5.660589   70.194016
H   10.479938    1.010404   77.425179
H   39.520172   59.831917   45.255234
H    5.600358   14.847705    9.868004
H   27.842392   30.013103   77.768089
H   71.870293   74.709366    4.954659
H   67.013496   67.124527   99.709747
H   17.653292   61.414711   85.414459
H   91.717636   77.356567   49.743488
H   91.668152   38.984470    4.051639
H   99.953674   17.448418   32.524918
H   63.333481   74.258087   82.523331
H   29.017830   91.223244   78.565582
H   82.556007   80.294769   50.432491
H   62.759460   76.784111   87.974396
H   14.548122   50.827988   83.769600
H   35.209103   34.674377   35.010506
H   80.961929   95.109039   94.214905
H   86.370384   35.882626   14.925558
H   77.200554   37.956738   96.719131
H   80.126350   26.340481   56.273155
H   60.209560   60.267391    6.623059
H   38.959530   23.477633   75.288887
H   74.841118   34.326305   90.580681
H   79.091721   53.081947   58.011223
H   38.732948   96.878891   70.510986
H   31.603411   86.844772   40.369991
H   31.165222   16.389563   52.209183
H   99.678886   71.287621   66.636223
H   34.178185   40.180084   14.354250
H    0.907784   49.059853   95.523865
H    3.545825   28.277763   35.109779
H   61.113701   82.216919   27.830414
H   91.281357   30.369062   74.751106
H   88.645279   40.450146   57.789841
H   91.420830   26.249443   71.447922
H   61.748730   86.898849   58.021919
H    4.295554   23.571438   24.288828
H   78.752510    9.583173   67.376587
H   43.623848   64.454758   66.230560
H   33.603226   37.710480   29.959518
H   43.963890   42.652435   61.413055
H   25.665194    9.761895   47.710686
H   97.448540   65.017601   97.745384
H   45.062344   10.962299   68.300346
