100
TIME:    3.955, STEP:  3955
H   49.861481   59.327667   95.525101
H   91.254005   19.177816   27.479872
H   47.737579   58.442421   76.917564
H   82.140442   69.704094   23.375620
H   59.746475   89.768196   58.468109
H   66.694954   96.923347   70.423637
H   45.688251   28.398045   99.739082
H    9.031097   30.759708   45.059406
H   56.406487    6.036240   51.134541
H   66.760902   73.171303   62.565727
H   32.370560   25.380314   58.783092
H    4.887581   21.934122   11.408033
H   91.685028   22.424576   32.034431
H   59.252419   92.885445   58.218388
H   28.609402   16.750912   60.660793
H   42.503006   65.810295    4.741315
H    6.069528   43.562664   33.427605
H   85.654137    2.368861   62.430500
H    6.868871   44.271393   71.725876
H   85.963951   21.827398   85.607445
H   29.581406   62.485538   49.896469
H   41.550049   49.334305   82.473511
H   32.939079   62.456459   19.192902
H   51.579155   84.115692   13.339855
H   88.131134   72.508850   65.748390
H   28.521364    9.764615   18.468664
H   21.034403   78.073380   78.443703
H   98.830994   41.045731   97.501427
H   97.168030    7.920759   70.217354
H   52.645172   92.953148   97.800201
H   71.710930   76.707573   96.471931
H   15.478148   43.238167   33.129875
H   48.942806   79.115883   54.094589
H   45.210068   11.270554    5.133930
H   82.460175   59.952446   65.558777
H   16.434790   95.171234    7.034982
H   59.134193   59.695297   20.103689
H    0.526035   86.572197    1.535802
H   78.131561   95.246025   61.043312
H   90.676674   41.929535   49.205959
H   64.955505   91.890320   35.523785
H   76.168259   89.360428   88.610931
H   45.307568   87.216904   87.147484
H   26.805105   79.053528   67.432861
H   13.589067   75.846161   94.550354
H   27.062733   38.352375   99.226509
H   72.633102   39.924706   63.431625
H   56.450634   36.105179   13.290871
H   80.638107    4.897311   86.707642
H    8.825702   90.933525    7.047369
H   43.242878   87.813499   95.117706
H   97.338989   96.744522   14.422878
H   90.912712   44.941162   73.170143
H   85.104301   42.677338    6.340254
H   25.890854    5.194574   33.985607
H   98.514816    8.373785   57.989273
H   46.980869   75.426765   32.140953
H   31.558342    3.386397   11.683056
H    2.200109    5.876730    7.855217
H   98.030472   31.782614   51.120979
H    9.184771   94.646996    6.033672
H   58.543938   91.129501   16.402145
H   42.565487   37.401421   62.264244
H   14.621801   63.308723   19.760998
H   89.303108   44.964954   63.881046
H   58.383217   45.657997   80.034271
H   70.251389   85.096771   58.009869
H    7.166862   43.728348   55.274471
H   54.020187   65.605255   12.181044
H   10.515081   47.068230   93.405029
H   96.442513   26.301888   14.704754
H   47.858902   20.266586   46.188717
H   49.118378   22.676197   60.344849
H   43.146862   99.098701   68.161430
H   52.856754   34.277287    1.213343
H   19.154985   61.052467   29.808563
H   26.042974   83.753708   60.995289
H   17.793423   92.112663   32.859795
H   51.168175   41.901646   61.812569
H    5.564499   93.555794   80.194481
H   88.269241   70.197952   16.370134
H   38.073341   70.056717   56.062988
H   68.031532   73.273956    6.594172
H   22.248247   50.597115    2.189467
H   59.753754    1.496048   64.359528
H   60.270611   54.329712   16.430603
H   31.300238   15.792213   12.133190
H   19.618200   88.647514   54.612396
H   37.762070   73.964241   95.844002
H   16.663172   46.557266   65.596695
H   85.877472   86.990089   16.984171
H   70.926376   92.939018    8.887075
H   38.976585   46.187416   24.850748
H   29.493504   53.133614   93.484138
H   88.210136   95.464195    6.969228
H   20.588409   39.552071   63.168037
H   48.672852   94.650124    9.733173
H   21.383726   49.912140   92.750450
H   20.306145   53.898746   13.763680
H   84.871208   77.140419   16.742067
