100
TIME:    1.545, STEP:  1545
H   12.840508   80.336990   97.731522
H   58.293266   88.512550   75.458397
H    6.311932   85.057854    5.199025
H   81.735931   68.995995   55.477688
H   81.332626   96.596092   23.812874
H    4.058172   99.534279   31.751974
H   71.995750   65.664757   11.273872
H   98.452339   22.264393   66.338203
H   15.648949   37.748016    2.834094
H   32.618095   38.567268   68.192436
H   56.542892   28.408726   90.927292
H   96.870377    1.133742   82.954521
H   44.984535   68.232704   71.567863
H   78.582405    0.313805   74.815834
H   99.292290   32.021168   76.506546
H   39.403702   76.599724    4.792686
H   99.851791   84.170303   14.024060
H   34.160332   19.567520   45.984177
H   69.325020   43.168877   44.758297
H   50.891853   73.003036   21.523386
H   72.594147    2.407036   15.310711
H   10.492570   46.139160   87.701027
H   65.116051   82.056831   88.145264
H   75.494270   55.211582   92.328751
H   74.326042   63.640884   47.961525
H   39.574749   81.572174   44.359482
H   28.851353   78.254288   30.625090
H    2.179866   28.555080   17.841463
H   44.765533   89.266693   84.139763
H   60.235348   52.601273    6.211995
H   76.877663   60.592728   87.154510
H   63.309422    9.827256   56.235680
H   79.185867   55.442543   36.982758
H   43.381569   32.132607    6.663286
H   42.368431   42.130074   18.808678
H    6.886209    5.851176   15.328305
H   27.984947   47.955421   30.205145
H    0.134906   30.676243   31.467777
H   81.263504   47.526802   94.045609
H   17.672049   67.546349   59.592541
H   29.657555    9.195964   78.744064
H   92.765381   81.198662   75.386841
H   24.548826   72.764847   13.070672
H   80.700859   38.664490   31.796251
H   22.638580   70.931259   88.319656
H   58.154881   92.385292   89.444710
H   52.393848    9.083896   40.825142
H   56.321926   11.290617   64.173775
H   10.193776    4.493223   82.843948
H   58.293385   54.265285   75.604820
H   43.426746   20.483866   69.707092
H   80.217323   20.374254   72.636368
H   40.928795   30.967163   13.137997
H   40.913273   81.998375   99.994034
H   17.762047   93.947693   13.516544
H   95.499374   10.908226   40.031357
H   94.198624   44.966789    2.929727
H   11.013248   30.981724   73.759720
H   12.128334    4.048029   92.872757
H   57.063473   46.542347   19.666100
H   57.160625    6.723237   93.935875
H   44.076080   13.564213   25.447922
H   79.029724    1.795447   27.565285
H   49.132256   50.198906   85.193810
H   93.645393   37.447437   39.444019
H    6.433539   65.466530   37.537807
H   63.610367    1.778617   41.655529
H   73.642006    5.896856   40.062534
H   33.904961   38.772476   63.334305
H   61.682571   25.851686   98.479797
H   72.971428   90.278618   43.617588
H   46.574444    0.249361   69.740349
H    6.254409   41.883640   22.132244
H   96.186913   51.609726   11.384651
H   36.662552   30.842051   18.519444
H   62.186832    6.592182   91.970940
H    7.230577   92.636703   18.371653
H    4.567240   49.697601   99.763367
H   35.608940   48.976414   34.916756
H   23.755936   24.809580   87.818123
H   41.116459   45.265392   72.329750
H   57.246876   54.317581   57.585648
H   15.554767   33.043549   77.053528
H   56.453213   44.369244   22.311287
H   77.100571   52.244492   97.982132
H   15.731449   65.807457   49.072807
H   70.341774   91.018829   97.214554
H   80.826614   81.598251   79.683342
H   87.745064    8.149413   15.559204
H   29.739388   45.710823   79.446892
H   87.250282   56.855930   66.089310
H   92.601311   11.704866   62.958374
H   84.414497   73.923630   38.440781
H   96.557350    6.947853   30.990459
H   29.880898   11.337341   51.588646
H   21.532288   34.720024   87.647537
H   39.967209   56.344814   48.334885
H   12.537858   29.392426   31.316692
H   35.111656   43.510181   15.634083
H   35.191116   39.018467   48.880440
