100
TIME:    6.982, STEP:  6982
H   45.157791   81.738075   92.753799
H    7.651004   83.208412   18.342300
H   99.784637   76.217171   41.384022
H   82.648514   44.992584   57.456852
H   32.633911   32.395428   76.394836
H   19.745815   93.643974   70.197769
H   87.043442   32.795788   36.454647
H   71.114861   92.634033   67.130684
H   81.996986   15.002681   60.596119
H   84.056313   16.636171   81.091286
H   50.806396   47.178394   67.207054
H   89.356796   73.662262   95.943153
H   98.530800   39.372707   31.254810
H    9.374573   83.555397   88.573067
H   65.409370   46.366173   15.138897
H   20.792728    1.057637   53.474121
H   62.656197   43.775280    8.987359
H   50.374363   55.094879   57.492195
H   54.010174   71.258224   31.200703
H    4.412193   57.539471   91.699669
H   49.954941   61.138054   67.736931
H   31.751480   53.352692   24.696457
H   92.522438   37.838066   32.588242
H   70.330254   20.353243   88.529526
H   79.868233   32.452606   88.103554
H   14.686550   20.271454   33.845390
H   60.014179   52.244743   38.502209
H   43.420670   82.335869   97.559250
H   62.987755   82.553810   27.128660
H   68.714066   18.035637   38.437157
H   90.840736   48.144691   56.985390
H    6.605057   59.603390   52.905342
H   62.160938   57.645866   26.790655
H   73.107796   33.863998   77.611023
H    7.193051   31.034645   49.842873
H   79.571129   32.289398   97.475288
H   49.463272   48.839966   58.619602
H   75.412453   31.178677   15.142371
H   50.361118   29.289530   67.704666
H    5.567444   58.552624   87.363876
H   58.081223   95.753883    6.838111
H   11.809109   68.983063   36.403683
H   71.374359    5.370876    5.791924
H   33.519253   29.835226   63.397621
H   51.018471   56.416187   53.578922
H   88.000084   96.087814   11.526381
H   96.281540    4.542394   92.484550
H   56.613766   67.282318    0.584536
H   69.118538   54.199917   65.961380
H   72.327881   37.003941   95.350227
H   43.022175   95.576126   27.026978
H   44.452999   15.860985   15.711656
H   53.701237   62.492737   97.364601
H   15.006523   93.283890   39.912003
H   84.877426   70.474785   59.735615
H    2.291832    5.189337   54.943039
H   38.880009   88.083595   20.033882
H    6.161870   17.523714   33.716171
H   40.932152   33.779781   75.476234
H   98.279716   64.449097   65.025902
H    0.130062   53.875092   70.023392
H   51.113106   62.954605   79.441193
H   48.068989   30.844334   54.693756
H   22.480713   79.796997   37.578938
H    9.449523    3.203075   45.772511
H   72.432190   95.177544   59.014175
H   27.389902   89.748322    4.152522
H   98.071098   16.845358   99.982574
H    4.882797   48.104340   22.333370
H   71.837120   99.315361   87.031036
H    0.321494   20.346542   78.396553
H   98.301979   19.788258   67.826973
H   51.751968   72.950806   82.730530
H   76.506126    7.529106   88.307251
H   98.802116   38.595898   30.681519
H   90.715218   55.054501   26.129755
H    0.897090   21.490536   14.568201
H   60.007381   94.184181    0.028145
H   96.326469   33.010387   95.577751
H   57.121017   28.677418   19.415520
H   47.500038    1.514005   97.287354
H   65.219276   89.750046    2.890689
H   59.503601   23.881750   94.873215
H   30.500431    9.623777   25.719501
H   12.363997   12.156041   70.925804
H   90.598923   65.517059   26.634628
H   33.466785   95.704185   56.472084
H   68.318779   46.367580   23.185394
H    0.578310    5.426073   71.087044
H   49.036564   22.017040   73.805115
H    9.754963   50.438812   80.908859
H   94.896194   20.592453   66.557610
H   33.013035   37.014309   58.933357
H   22.050228   36.762657   97.584595
H   35.878731   24.324425   76.525482
H   70.606155   20.020231    6.819530
H    8.404295   68.362396   35.648407
H   24.800447   31.929131   38.718010
H   76.106743   66.952171   60.222576
H   72.889122   99.466171   25.141994
