100
TIME:    4.507, STEP:  4507
H   12.532501    8.706482   95.019730
H   76.003212   49.092430   62.287941
H   57.225922   98.156166   70.440392
H   82.233093   46.962395   93.118660
H   54.802261   34.013428   43.500702
H   58.134449   96.325325   25.089212
H   16.758858   65.673187   42.906277
H   65.644981   78.514343   94.375694
H   42.837273   52.963745   16.387014
H   51.675575   81.097206   84.179047
H   81.024872   47.591373    5.612797
H   83.821083   49.603188   72.115959
H   56.466110   89.042534   77.183838
H   31.920273   91.184029    0.223739
H   35.323479   67.444000   34.124599
H   20.307682   17.530510   58.920837
H   61.681007   80.073364   83.678337
H   97.448082   75.521523   43.290478
H   15.466427   67.429398    0.809876
H   71.089195   10.104895   23.190104
H   96.824959    7.530648   34.916428
H   94.470825   50.067093   35.465576
H   25.569084   57.967079    3.398789
H    0.292334   90.736053   72.344727
H   68.387970   28.731895   69.825050
H   26.000872   93.416580   66.599602
H   73.435921   55.127903   89.393410
H   52.253689   66.811234   15.748048
H    9.171313   58.002193   44.123360
H   73.811798   79.291283   41.681801
H   93.433464   26.207222   52.799446
H   50.331890   27.988594   82.028496
H   87.824318   38.728310    3.823109
H   68.532944   60.683075   81.878822
H   68.739349   18.225639   99.174377
H   64.423431   38.436558    5.258307
H   12.079294   39.480453   63.599293
H   77.708611   76.473198   40.487583
H   54.832294   83.218193    7.550740
H   38.684464   90.252907   92.635620
H   27.229820   10.831090   48.528667
H   26.557663   14.134000   14.544178
H   50.062267   90.527084   27.019522
H   91.556976   88.301819   21.405664
H   65.705757   54.066589   41.787128
H   19.941212   48.880939    1.469282
H   76.945602   69.943748   68.730049
H   56.480114   41.790604   47.445534
H   96.776291   59.178944   64.690308
H   20.402912   99.331108   68.437721
H   43.200764   34.522118    0.937731
H   24.163877   45.523640   78.186188
H    2.360068   48.141846   41.109760
H   72.318413   33.669098   30.697037
H   81.940704   53.571224   38.681347
H   99.205490    7.792796   39.197891
H   81.975769   59.499153   84.640587
H   90.455215   51.257271   97.464340
H   45.733620   29.201302   65.479454
H   61.601917   74.211716   35.420784
H   44.006012   68.974144   62.993454
H   38.952385   85.991562   91.426163
H   80.041161   99.733078   24.411949
H   52.527878   66.314713    4.772533
H   11.212201    0.876943   15.286338
H   24.472816   18.216347   12.672412
H   25.963747    4.182370   84.659775
H   69.036415   75.297195   81.663261
H   81.530746   25.942047   77.561981
H   21.698523   74.832520   92.242676
H   78.914558   88.743362    8.082287
H    2.344911    1.946250   86.603416
H   13.126429   95.372810   46.190247
H   30.992687   64.169136   35.362846
H   79.471199   35.064823   43.059536
H   32.206192   96.428795   92.665848
H   76.161880   35.909435   70.757378
H   43.727383   56.019810   63.346306
H   77.639153   40.280247   67.971169
H   78.493347   63.494564   32.639061
H   99.067337   75.908646   49.361446
H   79.491142   73.661697    9.904753
H    2.951249   82.492249   59.168697
H   60.223213   97.832466   51.771454
H   32.876434   66.970634   10.849254
H   47.564739   74.605522   54.763000
H   68.167061   75.657303   38.454758
H   28.502203   44.452812   48.872223
H   49.217148   43.229256   91.329353
H   67.860123   23.845047   85.331436
H    8.467734   16.797268   28.641397
H   11.769776   34.449944   19.405554
H   74.360985   62.750954   67.537766
H   82.846573   86.615814   30.702871
H   78.667046   46.020523   19.652687
H   66.181305   17.755108   34.656685
H    4.858214   26.327938   77.987122
H   23.409422   54.612091   83.914879
H   94.010162   56.278202   67.529396
H   19.158655   62.973492   63.567593
