100
TIME:    5.669, STEP:  5669
H   33.950600    2.146012   93.955887
H   43.910622   12.057700   35.553905
H   77.205429   81.754807   56.800793
H   82.428131   99.086517   29.425304
H   44.394333   27.152773   11.995758
H   40.111179   95.066444   40.166431
H   55.856709   44.136234   33.776264
H   74.314072   79.042130   87.685005
H   14.273094   41.242218   43.243828
H   19.921556   97.781807   29.681677
H   72.938461   94.347260   93.682869
H   39.471664    7.848291   89.403816
H   82.316299   18.774883   61.721367
H   74.385979   87.602425   88.653175
H   49.454857   63.649521   78.269470
H   73.585464   15.897717   62.464569
H   68.239845   56.929882   89.459778
H   22.295607   18.984318    3.009489
H   33.564671   16.173891   62.025265
H   39.783615   85.425575    2.304518
H   27.870216   91.850098    3.378330
H    5.872894   51.609665   36.510544
H   10.053861   48.516609   70.153473
H   92.326057    4.645968   86.044098
H   26.827732   36.579971   78.406715
H   20.703821   59.070915   57.329720
H   73.235397    6.822493   12.447308
H   54.207378   21.049446   54.161621
H   34.438179   63.427982   89.196045
H   18.368000   50.532066   34.057358
H   39.166199   30.406025   60.865700
H   23.701206   95.885178   74.456337
H   69.674919   53.711113    8.505246
H   17.630165   54.192680   32.924324
H   39.856018   30.387201   69.929642
H   65.434067   29.449451    1.603269
H   23.530205   96.923462   55.160320
H   29.682446   55.210407   22.487484
H    5.780689   57.898735   94.944420
H   29.237333   81.470741   84.059837
H   47.815369   50.698601   75.904884
H   22.461697   63.834442   69.370445
H   60.071255   97.495255   10.952308
H   17.359516    7.796946   35.020897
H   64.910881    8.223454   41.222393
H    4.947799   71.044327    6.192118
H   86.023727   33.138138   79.882668
H   56.542171   53.758835   19.343481
H   30.740562   62.942116   18.334797
H   44.773777   17.017157   87.167038
H   43.112331   22.338270   13.187438
H   80.635582   37.698505    1.901517
H   26.463940   54.879517   73.623344
H   45.409317   14.706252   81.974144
H   89.420403   55.409710   48.566219
H    0.656459    6.570485   99.640656
H   55.640663   25.970375   95.156425
H    3.930465   41.520836   67.534897
H   37.378479   78.298073   76.271584
H   84.923248   63.527538    2.370735
H   17.305344   14.937628   72.395287
H   97.714027   75.175827   38.850357
H   58.929951   20.440683   44.730103
H   32.319283   72.644577   73.228256
H   57.336655    8.070141   23.498526
H   53.090294   60.450279   81.378853
H   32.734497   44.353825   40.762161
H   88.769035   41.753941   37.213581
H   39.444798   42.448143    4.681878
H   45.237984   33.276031   89.795837
H   42.016945    9.681936   94.143898
H    6.532631   63.381882   71.680405
H   37.362411   37.893867   16.393784
H    5.414539   90.628075   66.320793
H   35.496693   36.722645   31.147190
H   59.679932   70.903618   14.478073
H   81.663719   35.194675   91.307274
H   98.320251   80.038948   27.517199
H   33.361996   36.867085   80.932320
H   21.511467    0.201847   32.531738
H   21.805422   87.930069   18.811926
H   66.684875   81.235123   12.728856
H   76.452339    1.924938   69.831268
H   40.167900   97.267380   45.641003
H   76.295723   94.285088   98.206528
H   20.817959   17.285145   35.455887
H   45.774422   91.170296   93.863235
H   47.202110   51.435078   36.799034
H   73.330917   78.531563   81.825691
H   65.123901   76.038620   26.870981
H   56.021507   79.540665   53.180706
H   97.747490   21.842222   41.543152
H   48.847244   97.616554   57.397053
H   95.155006   57.104809    9.051057
H   58.578148   41.935520   46.353092
H   62.157745   71.869110   74.637634
H   12.624012   93.013145   11.159904
H   27.334848   66.958893   65.074181
H   38.654877   61.287128   70.199699
H   91.334885   33.159298   51.628536
