100
TIME:    7.764, STEP:  7764
H   92.274895   10.025304   92.037857
H   86.054276   25.583447   67.651566
H   13.226992   32.476639   32.202061
H   82.779770   12.773396   14.590965
H   25.626894   95.076180   55.191010
H    7.617589   92.796776   47.641327
H   46.058353   85.600067   97.608063
H    9.651207   60.285564   95.328606
H   62.773933   39.816513   11.370365
H   62.697365   27.864534   11.710739
H   78.066666   78.644058   91.881805
H   59.513031   12.859629   40.278633
H   48.665260   92.041550   53.541325
H   70.654411   81.145058   48.084606
H   74.907539   76.514084   77.530304
H   89.349091   32.661255   88.560822
H   99.772224   95.499786   80.175903
H   67.096481   17.042542   30.387630
H   66.188232    4.060969   72.398438
H   83.340866   40.935574   44.941811
H    3.549946   83.286621   46.514156
H    6.722580   54.390808   58.101959
H   82.081612   31.478357   10.212523
H   97.670074   29.708223   30.451298
H   51.898750   70.436935   93.878822
H   10.999447   97.220749   60.256386
H   92.580429   19.736120   54.020260
H   77.437492   18.836966   23.408392
H   79.991386   53.502674   90.164207
H   98.700119   98.680099    0.604798
H   21.617159   18.268848   95.116112
H   55.980953   37.999828   80.511711
H   17.242334    0.431690   97.239388
H    6.148822   62.198433   44.665741
H   87.731056   71.826286   97.419022
H   47.548725   93.538269   95.017220
H   24.467957   20.201040   20.238005
H   43.091515   16.865795   70.324318
H   17.350208   12.253084   91.923363
H   31.911755   85.343719   48.890381
H    4.637604   22.584951   25.260954
H   45.906364   72.049683   76.325279
H   78.104218   10.061790   62.274082
H   83.585892   42.960838   39.858112
H   83.186012   25.565037   20.496586
H   77.905296   11.001403   14.703375
H    2.392370   47.071236   99.990013
H   56.661495   75.336670   48.969860
H   91.980965   89.435921   34.764565
H   88.746826   48.906483   40.673546
H   42.968479   20.079531   35.270447
H   82.458725   43.297352   64.378571
H   69.921120   67.027039   51.949989
H   96.898132   80.528183   74.420425
H   22.613853   39.004753   66.385773
H    3.265812    4.366749   28.321915
H   88.455994   65.519478   94.408363
H   47.932053   43.673622   13.571776
H    2.604085   66.825981   15.443642
H   46.674210   24.554813   42.783958
H   49.459942   17.509995    9.054173
H   23.358406   55.675858   44.058342
H    1.157982   77.481476    1.069672
H   76.180473   84.056854   16.345280
H   40.489426   40.746616   18.596544
H   24.392929   56.301872    5.252283
H   64.648254   16.784557   41.908672
H   44.053246   61.568901   37.366699
H   43.859528   91.914818   73.289062
H   87.707558   38.609585   85.376282
H   75.490196   67.139648   69.017708
H   33.921116   93.804100   25.144606
H    0.763273   34.273396   62.683620
H   59.289349   58.034901   41.842590
H   36.470215   39.747272   89.973480
H    9.200936    5.171913   73.509834
H   71.919640   53.807396   28.436602
H   96.747162   43.053158   43.216923
H   33.825058   30.713406    4.302561
H   18.771400   86.077263   52.045631
H   62.808174    9.604501   44.026581
H   23.901169   94.821304   37.468067
H    8.964654   36.959629   69.347977
H   84.299873   76.541382   54.295025
H   74.287796   63.234554   95.120384
H   72.604904   94.238281   80.938858
H   85.694786   38.846428   93.760750
H   80.895500   83.791321   15.077347
H   16.808979   61.885063   64.691292
H   79.897217   89.843277    1.762422
H   41.757587   92.665565   97.423264
H   52.756275   79.406540   81.461143
H   83.140930   60.479321   19.406618
H   97.626961   84.205772   50.313351
H   22.357224   54.278572   94.495636
H   35.196182   89.140564   66.428200
H   46.332298   13.239612   90.673698
H   23.291002   70.620872   23.019266
H   38.853874   70.329033   94.720314
H   21.463640   79.395920   49.810062
