100
TIME:    8.401, STEP:  8401
H   49.196526   51.609306   91.454666
H   68.461349   60.103489    7.814537
H   24.176401   78.305725   24.725002
H   82.886688   86.528618   79.675850
H   19.918913   46.134449   37.918839
H   97.739380   92.106667   10.724833
H   12.674247   28.613596   47.422306
H   59.584259   15.395703   36.842018
H   47.115257   78.570724   71.275208
H   45.298836   37.010914   36.653847
H   18.814468    4.275162   30.522997
H   35.198830   44.789211   94.937157
H    8.045774   53.484238   90.238892
H   39.113503   79.181648   96.559090
H   82.644539   19.614090   46.896057
H   63.737289   76.946739   35.684845
H   48.548622   37.631344   38.164528
H   80.713989   86.046425    8.306988
H   76.112198   30.785603    5.960285
H   66.175613   27.409578   88.311775
H   65.749474   19.870945   29.227015
H   67.792397   55.236435    3.855530
H   73.576744   26.300108   91.987122
H   38.483818   37.328583   83.142914
H   29.115734   19.918640   98.583229
H    7.995909   78.442001    0.310248
H   37.651230   93.256851   66.659897
H   23.690001   48.569981   44.465454
H   93.842171   11.296637   60.052116
H   23.124546   82.914505   51.243774
H   46.688503   75.389091   44.718697
H   96.201683   20.402042   21.541389
H   62.113216   53.825035   54.625381
H   33.064972    3.821233   17.830523
H   71.877983   23.596397   36.176182
H    2.922574   43.432945   93.014931
H   85.564079   96.871346   70.431297
H   16.763897    5.207962   15.277076
H   90.462547   98.375267   30.192677
H   71.912445   25.709585   99.007385
H   61.102600   44.440033   40.268398
H   92.223282   74.547684    8.847112
H   83.586212   13.882906    8.287014
H   42.911327   53.655434    2.140870
H   27.931591    0.434327   75.007378
H   69.682304   23.148785   17.291285
H    7.372057   81.712776    6.107593
H   56.700375   81.897568   88.383842
H   10.601677   36.679100    9.353868
H    2.120754   58.602032   96.134178
H   42.924740   58.581261   41.986862
H   13.417126   84.188644   22.563232
H   83.130394   70.720581   14.955126
H   82.143402   70.137665    2.530020
H   71.894691   94.828018   71.799728
H    4.059195    3.696687    6.636932
H   28.838951   47.139244   54.992485
H    0.500413   83.516258   97.163597
H   52.844616   93.740242   66.542313
H    4.640395   73.517609   24.666161
H   89.641800   87.885986   59.386875
H    0.750002   49.746750   15.235514
H   44.404797   34.014313   57.388672
H   19.921009   87.526840   99.049927
H   65.775269   89.869995   77.917328
H   85.262306   24.634605   42.917042
H   13.540411   38.806553   72.662277
H    0.051056   97.998894   67.818985
H   75.607635   46.144051   33.336754
H    0.644691   70.603470   84.025223
H   55.261089   23.796520   61.377907
H   81.465103   72.653709   71.835068
H   59.230347    2.764351   46.349415
H   45.268467   17.720966    3.995234
H   67.155777   40.685238   38.271030
H   24.261293   45.998581   30.649008
H   29.773174   98.671753   39.735161
H   26.671926    1.403604   78.399902
H   64.369743   28.842335   11.411415
H   87.532768   51.377403   97.167656
H   75.278740   16.194559   82.099228
H   71.699722   98.952240   84.176170
H   49.256897   47.612583   30.011875
H   28.125107   31.051325   96.116295
H   43.271759   23.388035   33.370186
H   57.945362   17.635792   25.174301
H   28.238649   92.531013   24.135399
H   91.140221   32.817459    8.472710
H   30.030403   26.417719   59.481453
H   23.577288   63.638496   24.533003
H   67.826225   27.060825   10.875876
H   99.887825   27.314613   93.601234
H   23.973652   79.589439   68.666809
H   59.188995   22.851795   93.265358
H   11.342205   97.218521    9.132965
H   87.809723   63.985596   33.526512
H   95.770805   49.794807   54.039589
H   22.061441    2.142148   10.230375
H    8.508807   73.079750   41.366001
H   61.028286   63.047421   88.445007
