100
TIME:    2.676, STEP:  2676
H   36.354889   76.618523   96.696060
H   26.832497   49.834023   46.801228
H   25.752813   66.426193   91.925362
H   81.925766   22.399340   93.482117
H   71.202362   87.250717   93.148026
H   86.523201   98.308983   43.759296
H   12.721766   42.034439   99.719536
H    9.557976   20.110331   62.493565
H   87.846748   29.007004   31.641964
H    1.713800   54.806755   12.477939
H   51.340027   73.917252   81.983307
H   53.706833   57.824692    2.448916
H   73.041069   99.805481   59.155579
H   22.581200   96.827675   60.886021
H   13.050278   30.995802   22.138960
H   93.927643   77.676300   10.909933
H    8.919147   58.966003   16.995188
H   58.329727   64.566750    6.771927
H   86.945122   90.614059    4.345731
H   20.423401   48.985729   98.527199
H    5.479029   89.812836   84.611450
H   18.931076   47.636414   91.392181
H   50.015572   72.858482   55.787094
H   70.412109   68.776123    8.330047
H   33.874016   73.941528   56.305618
H   34.388813   47.872036   38.350151
H   31.323990   31.238394   53.068714
H    6.749258   81.346352   55.227764
H   69.357742   91.879890   30.675547
H    3.603701   24.609299   96.123344
H   21.371954   62.016682   97.662346
H   34.721352   78.575890   51.533333
H   58.852436   72.693489   38.872169
H   91.168114   28.483231   59.015213
H   14.253064   56.635071   87.678459
H    5.221845   94.698174   11.441010
H   36.462372    6.534311   19.323484
H   53.385803    9.975643   11.280058
H   32.118011   23.110811   84.988174
H   11.144499   61.665985   48.576786
H   52.364971   48.002415    5.391086
H   91.117516   31.958450   28.521479
H   34.290791   79.547119   94.764122
H    8.478830   57.622063   42.378967
H   24.532770   26.310162   85.103249
H   43.563503   13.957386   94.035255
H   62.639591   70.367584   51.146309
H   56.382328   22.935244   34.153618
H   43.250885   10.823772   37.727318
H   82.007530   71.476082   96.502472
H   43.340458   11.292845   81.632156
H   35.180561   15.426010   98.386436
H   64.390480   37.525085   47.452164
H   14.724728   63.549690   49.900543
H   27.723846   93.097382   23.112379
H   96.914505    9.719603    1.529449
H   65.897102   12.332253   10.497364
H   26.795990   24.172550   44.628738
H    1.328200   51.836559    6.044847
H   82.430191   33.474384   87.498787
H   28.505167   54.124249    5.754529
H    3.937710    3.034864   74.275085
H   55.745052   24.670343   49.974289
H   26.795095   56.351273   54.489704
H   38.537121   47.116734   44.772072
H   36.954201    9.240974    4.411213
H   72.867928   40.878635   96.258865
H   95.515999   70.580383   94.130875
H   90.273186   57.506035   92.397957
H   84.599915   82.738350   96.098236
H   37.058174   13.324414   30.049202
H   53.318069   62.713867   52.546631
H   32.511993   85.940666   93.132805
H   71.301323   80.037430   44.165916
H   91.192528   32.452541    4.256497
H   88.919579   79.079826   15.869072
H    9.918055   94.608780   38.376255
H   57.703671   75.744377   62.227093
H   89.837036   45.658474   47.536621
H   68.289253   63.215008   90.381485
H   63.249447   56.966106   39.926563
H   42.107498   61.703873   63.012062
H   87.110977   51.923462   84.775726
H   34.255177   41.150360   19.006744
H   22.030499   81.499298   88.344322
H   89.701965    7.347523   27.612911
H   45.878716    8.785934   51.145355
H   99.033478   91.047516   67.915413
H   11.216942   45.176414    6.306727
H   29.743862   99.175613   19.878849
H   33.535583   17.928513   89.973953
H   76.287979   96.758110   84.512810
H   56.981205    7.816294   25.938156
H    5.872734   75.552788    7.248009
H   10.323620   10.029213   77.578728
H   14.948256   90.059456   29.230255
H   50.193863   21.250484   83.290215
H   16.690130   39.022217   13.218021
H   81.235069   48.385479   20.894630
H    5.429947    9.967970   39.948883
