100
TIME:    0.398, STEP:   398
H   90.407631   85.522743   98.781631
H   90.199104   26.323647    3.106216
H   86.602631    2.537940   18.666695
H   81.543411   16.252439   18.347181
H   91.606201    4.658975   54.913628
H   21.844650    0.780476   18.160570
H   32.111752   88.212273   21.576891
H   88.604279   23.034298   71.651711
H   43.844398   48.027359   75.035194
H   63.963875   22.100677   23.274805
H   63.234039   82.257004    1.412472
H   40.650539   43.640266   64.598930
H   17.945942   37.627945   85.570854
H   35.375233    3.850142   87.527809
H   85.343330   34.472298   31.640436
H   85.521027   76.925789    0.002426
H   92.067955    8.317368    9.592031
H    9.649585   75.345856   85.748337
H   51.461792   95.048676   84.330841
H   81.875893   97.187195   43.340385
H   40.658661   16.594872   46.440063
H    0.510545   44.625252   85.366707
H   80.430153   91.385307   20.962929
H   82.063004   41.455143   77.516403
H   15.348894   54.610126   39.497513
H   44.834049   15.750417   51.868446
H   27.758417   25.932247    7.863965
H   98.959465   75.016479   79.930618
H   19.825424   85.201836   38.358002
H   16.254812   80.989243   15.028519
H   31.757936   57.733192   77.917534
H   90.887421   41.514748   62.419228
H   98.391785   39.362251   33.651939
H   94.918282   37.248291   54.983940
H   70.878914   28.834549   48.963097
H    7.159402   15.750628   19.274870
H   17.972729   89.959816   39.826061
H   47.539337   51.669689   50.526333
H   32.827305   72.011864    3.979707
H   25.706619   74.924324   69.348869
H    8.043522   69.835579   51.717258
H   95.851189   29.719950   21.498709
H   14.669337   65.886627   30.221409
H   53.944229   19.441587   19.646240
H   22.132263   16.188694   90.165100
H   72.868340   70.686089   84.879051
H   40.282581   47.211445   31.024115
H   56.260670   99.480911   93.203949
H   76.662712   99.487717   28.597189
H   34.237118   36.807209   55.827202
H   43.514256   31.219625   57.613331
H   24.474581   26.807182   47.934731
H   17.135057   24.316467   79.755409
H   67.471161    0.708092   49.378742
H    9.074209   93.395416    3.783351
H   94.064224   12.113665   79.077942
H   21.483635   78.062752   93.840462
H   96.423035   39.300652    3.303064
H   21.666611   55.585236   80.929245
H   32.754669   58.380455   52.289513
H   84.806595   60.060448   83.364349
H   84.785339   24.240829   77.347351
H    1.228347   80.012733    6.253628
H   70.370247   43.959503   16.334158
H   48.120079   29.056236   32.625854
H   76.895638   22.487354   69.718727
H   55.636497   62.120136   86.277328
H   52.873238   40.299667   85.229301
H   76.739281   21.188576   35.270748
H   38.448891   68.163231    0.893831
H    9.393644   68.324669   57.374027
H   41.150028   38.316750   85.761482
H   81.041214   98.621162   51.544071
H   21.430664   24.193140   79.554283
H   81.360519   29.210005   31.569485
H   35.067745   33.080330   69.148209
H    3.090367   92.048454   98.076111
H   50.679092   24.696148   36.420429
H   80.630180   52.336361   22.126297
H   80.006821   87.278603   86.633179
H   18.670361   33.399151    3.776494
H   71.186165   46.826797   53.499466
H   42.978420   13.900443   67.807404
H   77.549042   46.218967   27.077248
H   32.950912   23.988403    9.170800
H   42.132961   23.673042   69.421562
H   93.736229   74.415077   42.521328
H   62.362183   73.429207   91.602089
H   63.942574   72.012230   24.944458
H   31.147583   92.909866   38.440105
H   40.310368   94.922852   41.866772
H    7.734716   25.439260   41.107338
H   10.820557   39.556259   49.705315
H   85.695961   37.374207   53.652897
H   49.710941   14.078701   25.232014
H   26.794785   80.014763   46.891792
H   31.010630   90.520927   14.299664
H    8.326480   19.626404   49.667526
H   89.752373   38.565914   11.713749
H   63.958630   68.481468   59.353012
