200
TIME:    0.487, STEP:   487
H   17.061022   61.655254   19.563124
H   30.165806   36.484081   99.924393
H   12.960747   79.949303   57.514275
H   26.168524   79.860756   38.040707
H   12.587681   89.989426   50.107235
H   81.583252   46.111027   58.238468
H    6.937812   55.128876   54.432240
H    8.423759   99.552429   16.304878
H   97.459457   83.803261   41.693855
H    2.166368   71.439018   86.329796
H   20.802938   99.870674    0.767103
H   31.799179   48.615627   24.511269
H   17.236485   95.205284   51.168358
H   92.729095   54.249043   54.168056
H    7.696694   73.846008   42.370853
H   22.100807   15.789337   48.994694
H   95.826996   19.286730    3.439814
H   30.696901   95.041023   39.122978
H   73.243553   20.759680   46.119900
H   90.842072   76.312645   27.895779
H   61.049332   89.088280   14.524320
H   84.530174   58.255516   61.056282
H   87.608704   60.745567   43.209579
H   13.839965   90.311111   90.811569
H   13.982416   22.637980   36.596729
H   18.456629   73.298042   98.798721
H    3.679004   63.752888   59.012970
H    0.178756   80.318710    1.381198
H   21.471756   49.022041   36.892040
H   81.887764   27.381157   90.081757
H   13.039014   61.768559   16.496798
H   27.434441   69.295395   99.684280
H   21.155212   14.300424   76.196175
H   88.251762   63.847397   42.607597
H   36.135181   79.594772   32.340282
H   24.992939   44.290241   82.308823
H   93.353806   69.097862   87.809242
H   20.697443   51.144577    4.061846
H   43.928734   37.555901   49.922009
H   87.713982   38.672764   54.047943
H   80.577805   93.685432    9.722769
H   25.633532   37.927448   32.507183
H   72.254532   82.107819   59.499950
H   36.731003   75.230370   27.582214
H   37.216381   83.831108   53.277412
H   37.583904    7.410367   45.374176
H   84.628769   14.111081    1.594699
H   84.102509   65.546837   38.768082
H   96.632698   19.378857   61.344414
H   53.278336   18.916162   95.262764
H   72.332489   67.369797   18.079903
H   11.696136   39.949322   68.852135
H   58.837971   87.355576   11.158164
H   18.730482   87.396118   85.360901
H   66.743912   70.891731   82.785126
H    2.139290   66.265137   86.736328
H    4.725578   17.680153   47.005039
H   70.107224   64.321342    0.845388
H   22.969215   79.248917   13.100460
H   37.390549   94.602211   62.428185
H   49.619564   10.557369   35.019962
H   94.375328   17.010008   50.959412
H   78.252098   30.323250   76.551834
H   30.110613   65.504730    9.182285
H   75.318932   79.761307   28.029839
H   29.050602   26.157269   37.303085
H   76.948830   17.951925   90.938240
H   95.958229   92.011497   92.161728
H   25.308311    9.191098   58.853485
H   43.815140   45.935036   50.969402
H   58.356808   80.864204   79.888260
H   25.198618   17.329395   43.035835
H   85.333145   29.933285   91.224861
H   15.912245    3.535464   67.763283
H   82.152634    4.869935   55.998787
H   59.556976   10.356415   61.263432
H   94.383591   39.145420   68.651787
H   17.406656   10.467674   39.521385
H   13.408424   40.697830   29.467869
H   64.554283   89.289406   82.547821
H   53.851353   25.927498   97.466721
H   37.497314   64.148575   80.221397
H   10.036047   16.375683   83.052811
H   16.619411   69.936394    1.901871
H   30.112499    1.935764   50.782368
H   31.626055   77.132187   22.641071
H   46.925480    3.298802    2.337592
H   73.277428    9.351304   20.758490
H   73.245834   72.658440   78.060364
H   22.206982   97.118362   52.148113
H   30.888704   37.025063   79.655846
H   82.334915   90.702591    3.757329
H   58.993286   14.076395   88.695137
H   48.951950   85.559723   75.886841
H   31.383665   53.585052   78.227051
H   59.043221   33.231709   17.448223
H   82.656166    5.735940    8.966876
H    0.104513   32.276852   50.932186
H   31.421059   67.303734   53.756580
H   71.499115    1.940990   27.310709
H   20.886442   87.255676   80.570686
H   99.757164   80.393456   64.502136
H   28.299475   28.143185   33.954437
H   33.744637   68.395523   99.970985
H   25.011314   24.226749   33.095551
H   97.201569   14.679829   32.326778
H   77.358917   33.163742   55.109711
H   63.295937   43.757923    9.190520
H   79.073700   36.971813   11.076298
H   12.301253   24.616537    6.746146
H   50.444294   93.920380    0.969633
H   95.911873   69.556580   93.324661
H   52.804066   83.140923   88.562775
H   62.387474   14.072332   68.584503
H   55.607628   92.253952   18.112150
H    3.958279   98.571556   90.077202
H   22.419582   11.920717   87.059555
H   39.517948   39.154076   29.041222
H   28.242714   66.987038   71.332123
H   77.300980   51.604610   58.556828
H   43.132515   23.400799   79.426071
H    7.631535   21.628780   55.453701
H   38.191292   11.405166   31.356403
H    0.438136   58.430416    7.048687
H   69.525520    2.836462   84.643997
H   56.771526   69.110336   20.762287
H   89.247063   50.343216   61.515625
H   70.025925   89.507195   37.088673
H   95.507355   43.542847   79.261383
H   79.717171   22.978624   70.709610
H   58.579636   76.366425   12.850605
H   72.219284   88.501175   15.151853
H   91.631203   94.611938   99.212502
H   88.809135   19.335869   52.747318
H   16.628155   96.903976   45.066780
H   55.779427    1.309849   80.042709
H   69.301643   87.193932   67.634766
H   93.325172   56.508797   79.295654
H   52.769394   47.787849   71.491669
H   43.581741   97.243660   88.594284
H   62.845921   55.805012   22.888718
H   45.867462   48.515690   52.004860
H   47.065327   61.307251   91.053047
H   46.395012   17.586725   82.217476
H   51.912098   61.575325   57.145344
H   54.990253   66.231293   18.016468
H   50.573082   95.696114   45.513329
H   35.907959   64.224411   67.407860
H   71.788422   54.479641   95.489006
H   17.335531   91.371460   80.753654
H   67.514015   65.504761   49.479523
H   44.184879    0.275321   40.411907
H   87.650230   22.602848   94.793846
H   16.439295    6.812263   69.848755
H   23.407021   60.402100   65.221954
H   70.834534   44.141354   61.660046
H   61.896740   68.291008   83.680466
H   49.557758   32.696877   15.510839
H    1.077091    0.803647   93.444748
H   60.910461   46.865723   87.719910
H   56.382191   74.374634   76.848541
H   32.007137   21.776281   33.404171
H   75.851479   23.800837   37.129349
H   20.341167   27.435776   60.631039
H   56.589188   30.469500   12.251494
H   16.169279   56.580154   60.951607
H   70.646606   93.571907   54.840157
H   23.847984   42.170544   58.226490
H   97.429184   27.366959   36.273693
H   37.744854    8.595747   87.621887
H   74.646301    8.571221   35.955345
H   37.630104   56.272762   58.216610
H   42.445339   66.840958   83.474136
H   68.184418   68.629868   79.969917
H   59.957733   93.178467   87.617493
H    8.533340   48.995049   23.523716
H   32.880318   60.637074   97.240463
H    3.919097    9.436417   68.038559
H   69.284859   15.637598   66.245964
H   74.550919   57.104652   89.869370
H   76.908302   94.040726   35.976406
H   24.209709   30.407558   78.633308
H   54.262947   89.908012   10.960060
H   56.859829   25.677467   86.277153
H   88.717125   77.621223   77.379227
H    4.431285   38.307983   85.190407
H   39.952667    0.293650    4.738071
H   78.554604   77.687080   34.169270
H   99.465401   62.274872   69.366333
H   54.105183   56.929691   68.823685
H   59.619820   22.852383   77.537605
H   45.628063   91.641647   21.478281
H    9.586926   23.400244   63.464306
H   30.788284   73.388741   38.291084
H   76.418304   43.222763   21.008322
H   75.931168   10.989535   26.182352
H   11.103116   92.294472   11.803632
H   21.731110   92.497162   40.000805
H    8.619509   12.303020   66.970360
H    5.431561   26.624491   94.317192
