100
TIME:    8.225, STEP:  8225
H   61.098869   67.749443   91.615799
H   73.322189   50.565769   96.717300
H   21.151133   65.643372   26.790859
H   82.857147   93.779594   89.322334
H   21.496000   32.027271   42.691055
H    0.468081   92.297340   93.295204
H   21.898308   16.728708   33.658878
H   73.417511    0.169725   53.002296
H   51.441673   95.492355   82.353088
H   50.105965   34.483814   29.762516
H   35.185562   97.193512   47.475571
H   41.916725   35.967190    7.464924
H   19.268913   64.136475    7.729505
H   47.828102   79.724129   83.166267
H   80.506844   35.335281   55.359558
H   70.813705   92.340294   50.294220
H   62.701454   25.990841   22.142553
H   76.951538   94.610634   14.407543
H   73.370255   23.401691   96.687881
H   70.918289   31.147188   76.328865
H   76.193565   37.392796   34.003651
H   50.919102   55.002792   18.843521
H   75.926598   27.730833   97.022522
H   54.837456   35.223114   96.213470
H   35.410347   33.876770   97.283424
H    8.825848   83.630478   16.872944
H   52.828598    0.572353   63.168369
H   38.540108   40.354893   38.647217
H   90.015266   95.328629   68.371941
H   16.376438   87.270462   37.252075
H   39.761135   59.606506   58.643257
H   85.088890   25.264225   37.834602
H   49.715389   66.702232   38.769913
H   25.628117   19.950417   25.244646
H   76.258110   36.922081   25.467566
H   87.623138   29.646807   93.568153
H   68.682732    3.316967   56.563137
H   24.038372    8.428940    2.857695
H   97.890770    2.209860   47.248512
H   88.490326   42.186501   85.160706
H   73.131165   38.401581   36.121914
H    7.055713   73.857498   99.862053
H   82.071564   12.827150   95.574287
H   54.148998   50.699989   84.932037
H   43.197762    7.377682   59.946472
H   71.954277   19.792522   16.576258
H    5.996130   72.141487    4.417413
H   56.689632   80.084824   77.493950
H    5.457429   51.254906   16.374878
H   98.426025   55.923199    8.439937
H   42.936825   75.572716   40.131149
H    4.863262    0.519478   34.117004
H   79.480736   69.700073   25.176989
H   86.220062   73.008514   94.763626
H   85.907875   79.404922   70.303879
H    3.839987    3.881822   12.628387
H   17.681847   52.217613   38.253471
H   13.605542    0.137117    1.696953
H   38.963024   86.303963   80.053299
H   16.254372   59.990108   29.672020
H   78.539749   96.071533   73.109566
H    6.996620   51.384933   23.198864
H   32.455456   46.024078   69.457520
H    7.835374   86.568100    3.828448
H   58.789162    3.926486   61.527435
H   96.074318   33.384117   32.510548
H   27.661688   32.722446   64.165207
H   12.208857   87.933464   59.405167
H   66.836639   58.790291   44.375694
H   97.070213   61.762989   84.398514
H   60.851055   35.772255   63.488747
H   95.959000   78.497459   58.934231
H   70.705688   11.470121   50.862476
H   49.142368   28.859943   14.452147
H   58.677505   40.426083   24.926550
H   20.100039   34.717941   42.491005
H   13.788175   13.905319   36.613213
H   18.403799   12.911175   68.678223
H   55.930351   29.359303    9.447273
H   96.164116   60.964806   12.330046
H   71.833183   14.373757   71.579941
H   58.492760   97.810883   98.901024
H   38.123962   44.669224   13.250035
H   16.016647   15.990107   12.191132
H   51.841339   34.397434   50.431465
H   61.996510   11.171008   12.952294
H   16.484011    5.327735   15.743065
H   88.309654   46.901810   10.297539
H   26.377388   36.216896   60.920906
H   39.138325   70.878799   18.241438
H   60.623585   17.558018    7.159041
H   86.865608   14.078175   90.246986
H   12.691769   74.309654   55.056458
H   42.180084   12.174062   81.397926
H   14.385601   12.983704    5.088868
H   73.272858   70.935791   42.617088
H    9.740780   39.694466   64.161415
H   22.401163   93.433113   13.763884
H   16.892784   72.319740   56.108311
H   50.096767   67.564224    5.399209
