100
TIME:    5.326, STEP:  5326
H   57.146645   33.599922   94.269913
H   53.383736   93.471191   13.926467
H   71.306976   57.077606   60.828175
H   82.370560   13.218895   48.227425
H   47.466553   99.659897   21.295132
H   45.431301   95.438042    6.197487
H   73.833504   20.974209    6.953205
H    1.273199   49.367977   19.177830
H   22.704689   74.220169   64.835625
H   29.293921   92.856834   16.249220
H    4.843475   80.545822   26.722549
H   52.563927   90.655663   13.818670
H    4.203873   39.517128   95.803642
H   91.369545   88.659645   62.552246
H   45.283546   94.287979   94.755829
H   87.376434   45.897659   90.936249
H   95.821785   34.244129   58.235138
H   14.960578   35.673199   14.899294
H   28.222687    1.783796   43.955692
H   49.023827   92.710976   78.951485
H   48.224327   25.997116   12.687889
H   72.989151   51.154327   65.720184
H   14.634059   51.306206   79.966782
H   24.195461    0.542696   11.517623
H   39.095123   63.782463   75.873573
H   22.267408   69.209991   89.584869
H    2.811534   21.080971    5.641338
H   83.149208    5.039360   42.822670
H   26.980064   32.308018    5.409909
H    5.216322   59.021233    6.790639
H   25.666317   99.648819   88.002769
H    2.044220    5.362225    6.209529
H   45.513859   78.807014   77.605095
H    3.137143   85.626671   47.374748
H   48.381821   56.315353   49.043564
H   35.617313    2.583489    2.681954
H   90.631775    9.485432   28.133160
H   43.858097   61.488308   98.283424
H   20.259487   65.372551   28.183012
H   61.542858   13.580719   57.073872
H   71.257401   38.930481   67.823952
H   52.949944   50.892426   53.016300
H   57.116795   95.438385   86.176430
H   39.260204    2.039486    1.484589
H   94.664833   21.755730   11.870543
H    9.374029   64.502121    4.798628
H   83.344040   14.483773   76.590630
H   56.523853   50.226044   98.120659
H   20.715286   91.350891   32.017166
H   37.579967   11.796476   11.157478
H   43.138279   55.452682    9.571561
H   63.966042   69.527191   24.419716
H   19.348637   52.890686   93.543053
H   53.351555   20.303612   66.838097
H   16.730896   25.349871   45.648396
H    0.229225    6.931288   11.317200
H   33.896988   35.867424   62.534370
H   29.470238   73.912605   76.369492
H   10.327627   63.805740    2.602698
H    7.558620   37.162449   12.126472
H   95.668396   30.888790   99.139824
H    9.886862   78.368423   54.371086
H   35.642315   43.846725   68.250641
H    8.766013   70.776123   82.539124
H   43.721016   35.465137   91.555901
H   74.161430   77.501884   61.098015
H   60.253632   32.496731   24.201912
H   12.462632   22.137133   20.816198
H   22.348707   67.093941   26.194923
H   38.290161   16.024139   90.518097
H   52.908409   33.019470   98.257637
H   34.814255   74.765320   46.566986
H   59.726288   54.859116   25.189125
H   12.964245   12.336876   86.701073
H   18.959581   36.233288    5.144575
H   51.570213   48.920013   37.557308
H   50.521687   64.924995   85.241341
H   82.205490    2.465792    8.573844
H   16.914890   37.874584   77.106438
H   38.329353   18.885834   62.081573
H   15.093206   84.381577   98.311989
H   40.942413   79.010391   41.421021
H   54.757271   96.188904   37.165195
H   16.570616   67.916428   76.968781
H   92.996666   15.739762   31.456337
H   28.713093    4.686164   11.636905
H   22.866232   16.109344   77.507721
H   41.685654   78.882507   40.355553
H   66.212997   97.629570   84.630989
H   95.448334   90.148849   14.609653
H   41.984550   61.018795   45.937176
H   72.368965   96.045792   35.008797
H   26.860201   87.326973   30.872334
H   62.004501   36.295361   85.923195
H   64.508003   72.659599   38.471043
H   33.827377   85.414093   92.353928
H   39.849205   73.328957   30.886124
H   26.414938   61.585388   70.805580
H   54.994690   59.808590   98.927834
H   70.028229   41.959873   84.670273
