100
TIME:    4.275, STEP:  4275
H   28.221069   29.981964   95.232132
H   82.410683   36.519981   47.658730
H   53.238068   81.464882   73.162682
H   82.194153   56.520500    5.835021
H   56.880264   15.417605   49.791351
H   61.732899   96.576668    2.113207
H   28.918007   50.006931   24.763575
H   83.879723   58.442814   15.677090
H   48.540276   75.269531   30.990561
H   58.015785   77.766029   75.095306
H    2.604942   38.256290   27.960178
H   92.674721   37.974159   88.630241
H   71.270554    3.071896    0.236578
H   43.407692   91.899117   82.569550
H   32.502068   88.167389   45.277493
H   29.636570   37.822014   78.178650
H   80.337013   64.727295   62.558464
H   92.490074   86.807289   51.334309
H   11.852932   57.696686   88.586227
H   77.340904   15.031744    7.394458
H   10.592148   30.627628   41.212387
H   72.228760   49.759109   55.222534
H   28.666618   59.853920   10.036805
H   21.847710   87.953583   89.574097
H   76.685822   47.131248   68.111671
H   27.058458    0.273705   88.416862
H   93.440681   64.772598   84.791359
H   71.829041   55.982254    8.078996
H    4.126315   36.953121   55.090401
H   64.915680   85.033226   23.238617
H   84.303703    5.403523   71.154549
H   35.683208   34.397835    3.505896
H   71.483498   55.702797   82.922714
H   58.730576   81.944550   91.652870
H   74.506073   35.762993   85.046082
H   44.255833   20.265537    5.988218
H   89.827164   47.976547   45.318531
H   87.298576   80.717705   24.116673
H   64.625702   88.273369   30.032648
H   60.535355   11.971772   74.383179
H   43.085388    2.871185   43.062847
H   47.408493    3.721326    3.644925
H   48.063915   89.135849   10.262012
H    6.371731   84.414856   98.721924
H   85.830879   63.219360   21.934141
H   22.934315   44.455891    0.526152
H   75.133102   57.327049   66.503365
H   56.467724   39.401077   33.090675
H   89.993576   78.393829   73.943970
H   15.537127   95.801689   84.665260
H   43.218464   56.919945   98.491730
H   12.889738   67.052139   93.415436
H   97.548454   46.796631   54.584919
H   77.692192   37.455170   20.460129
H    0.412625   33.239010   36.707775
H   98.915207    8.036871   47.095718
H   67.266907   66.193367   62.575523
H    7.730430   73.166573    3.440248
H   27.436926   19.398048   83.289391
H   76.912308   56.379780   42.019417
H   29.371332   79.764183   81.082954
H   47.186516   88.150986    1.922652
H   64.291527   15.564576   40.320885
H   36.595932   65.050919   11.072033
H    2.003531   19.406475   93.680855
H   38.725014   29.749794   98.955170
H   44.577560   96.161224   73.459091
H   85.062172   62.029129   70.572319
H   69.968979   42.612091   92.111542
H   16.998236   63.164421   92.731201
H   86.281380    4.528528   10.865643
H   21.474136    9.646104   69.618309
H   28.253901    6.848560   52.139282
H   36.100964   78.849678   49.147758
H   68.284676   34.733829   25.472292
H   26.720903   81.560631    8.276800
H   55.097900   56.018627   66.654472
H   32.827602   71.189812   50.533134
H   66.512810   40.961704   65.383400
H   89.871033   76.129036   52.626122
H   94.529007   73.508499   35.495113
H   62.084572   72.146561   29.305052
H   88.275673   78.615753   37.072674
H   44.262947   77.979927   72.961105
H   44.172699   81.481255   33.339020
H   52.904888   66.084648   38.652283
H   52.672310   92.525589   27.392134
H   24.768347   63.027397   51.284760
H   44.402695   56.146858   93.226814
H   88.371109   33.390762   77.037125
H   98.973175    4.270021   23.741983
H   94.603134   17.002861   14.984930
H   59.489281   55.789467   49.596844
H   60.423679   72.544159   15.060324
H   82.677910   66.802086   14.322133
H   47.019073   26.915844   46.639717
H   23.272881   13.013951   91.329529
H   22.558043   52.636749   87.628380
H    5.062063   55.278141   86.960670
H    4.748631   68.927528   85.915894
