100
TIME:    0.055, STEP:    55
H   13.603183   16.977417   99.095657
H   99.740257    7.726767   81.469910
H   80.709412   77.860817   22.694077
H   81.485840   30.384912   37.148529
H   94.678421   77.166016   64.214027
H   27.163464    1.153791   84.192436
H   50.087116   65.052864   94.753555
H   15.563406   93.360596    3.143475
H   52.275993   81.005310   96.624474
H   73.337547   17.177013    9.842348
H   95.139069   68.455566   34.451813
H   53.742802   26.447350   89.014442
H   39.763733   58.379822   19.662594
H   52.358799    4.907689   61.426765
H   81.172020   65.108231   48.129383
H   99.310486    6.927665   28.474781
H   19.644033   85.634346   78.362373
H    2.320136   92.025864   97.639450
H   46.120735   80.661057   66.258652
H   91.160591    4.379187   19.940226
H   61.012772   50.742569   55.748314
H   67.621559   44.172531   14.572186
H   85.009697   94.174904   30.777546
H   13.931477   37.341404    2.989387
H   27.615530   81.810905   36.964371
H   46.401463   25.975964   84.015099
H   57.336849   40.191082    1.057781
H   27.899750   59.006390   68.594284
H   12.366990   54.081875   54.572205
H    3.103029   89.478409   87.761253
H   18.265291   26.974360    5.059780
H   69.230103   50.990479   94.172478
H   74.232727   64.458153    2.751789
H   80.425987   68.682281   69.434364
H   79.404716   54.762619   28.077759
H   77.337120   88.806450   20.455084
H   85.075584    2.519538   12.798048
H   61.714989   57.947590   26.322786
H   48.248592   79.333900   36.855400
H   58.012287    7.033897   42.361481
H   31.482937   58.066158   43.633709
H   26.678085   14.324902    5.384377
H   11.715531   63.829754    5.446320
H   75.847534   13.693604   86.109024
H   51.884033   29.721901   60.813866
H   77.249001   64.238091   83.533974
H   36.660816   28.707470   28.093206
H   56.242352   95.948120   71.981033
H   66.634819   27.894093   42.280540
H   27.043310   31.586529   79.817886
H   43.534695   64.335152   54.006733
H    7.806348   58.636108   70.452255
H   10.020304   22.327637   99.675117
H   75.410782    6.304951   34.242695
H   36.381210   63.327381    0.872887
H   93.635056   12.474613   90.754471
H   99.739449   87.959801   61.218407
H   21.964621   71.692421   12.138313
H   94.615349   41.092941    7.260680
H   55.393791   32.015320   62.035324
H   63.170212   76.012314   10.108136
H   96.959076   27.433426   92.865463
H   77.964165    3.402575   29.784882
H   46.816399   42.093666   25.647642
H   34.504440   56.452236    0.682851
H   97.966774   39.538960   49.437893
H   83.155632   50.263042   69.717697
H   76.566490   20.682762   68.831917
H   59.645142   45.834373   56.784138
H   31.500973   50.910759    1.615109
H   20.286417   91.662025   61.487766
H   69.431175   49.700188   60.649532
H    3.405244   15.586620   60.339413
H   28.980370   45.899708   99.939796
H   64.821823   28.721956    5.567065
H   26.958029   11.097147   92.229111
H   71.949310   21.777134   92.004944
H   34.564331   47.123753   17.477425
H   64.190926   53.338627   18.301723
H   96.828140    5.958358   16.182734
H   11.958452   29.849867   83.275986
H   45.450947   44.586746   82.181458
H   21.275970    8.175359   35.138245
H   53.954117   16.868015   58.406563
H   49.653099   45.445419   42.420570
H   50.033451   11.068702   45.604465
H   70.828041   99.353966   26.165813
H   56.840561    0.890741   95.166283
H   56.824654   91.110237   27.751064
H   61.472054    7.024139   26.178015
H   26.273409   76.400558   34.623241
H   82.356071   99.643318   34.572983
H   88.813194   29.279417   23.169691
H   52.544388   16.568346   30.527424
H   55.640797   44.803516   17.351273
H   98.464325   93.559746   64.608086
H   58.236626   70.836739   34.025780
H    7.067348   16.705963   55.155128
H    6.091940   37.087376   40.444500
H   42.657207   77.289894   92.388535
