100
TIME:    6.189, STEP:  6189
H   98.785965   54.459312   93.479813
H   29.549389   40.237186   68.342995
H   86.147690   19.165314   50.695141
H   82.515411   77.663177    0.921845
H   39.736740   68.833069   97.896927
H   32.045689   94.503090   91.663628
H   28.605179   79.248955   74.440941
H   33.443100   24.029316   39.940693
H    1.490458   91.246185   10.510894
H    5.716490    5.248619   50.042118
H   24.569321   15.270151   43.593544
H   19.623337   33.913044   52.389046
H   49.133926   87.328987   10.051445
H   48.638298   85.999641   28.225681
H   55.777596   17.200836   53.272739
H   52.677872   70.416420   19.299923
H   26.424660   91.325432   36.797432
H   33.415905   93.682480   84.982460
H   41.661900   37.989990   89.423050
H   25.775131   74.380653   37.708488
H   97.012695   40.083126   89.263222
H   55.725800   52.299973   92.227783
H    3.110437   44.287483   55.276154
H   44.010815   10.866671   47.424839
H    8.230668   95.340485   82.247047
H   18.333368   43.697685    8.431973
H   28.394150   85.207901   22.765875
H   10.332320   45.321297   71.350174
H   45.744942   10.606695   64.614746
H   38.306217   37.662193   75.396469
H   59.633423   77.034706   19.724953
H   56.534458   81.515671   26.317299
H    6.301403   15.665701   55.350952
H   39.602287    6.537833   11.018877
H   26.929153   91.075935    1.593618
H   10.636999   70.177727   99.967934
H   73.404030   77.880493   96.134438
H    8.190847   45.692890   59.180904
H   83.832794   46.568169   44.551964
H   80.258438   32.789608   24.971697
H   12.277531   68.540489   88.155861
H   78.638718   65.873306   95.919518
H   64.549835    0.613763   48.511574
H   84.155029   16.524984   85.863365
H   19.806198   87.705887   85.719467
H   98.236870   80.962540    8.304697
H   90.086227   61.416946   84.873512
H   56.569942   59.114670   51.518162
H   45.939232   19.877235   97.591354
H   55.681004   24.932199   50.797562
H   43.076626   72.135422   18.668751
H    5.906729   89.446518   67.766792
H   37.250988   57.894653   43.421665
H   33.368607    6.221221    4.920508
H   48.017815    0.978762   52.989742
H    1.304151    6.023496   81.938629
H   88.607796   10.965770   44.612907
H   65.209869   92.412560   54.141342
H   78.389694    0.268933   36.352760
H   50.607780    3.494336   87.580711
H   50.107746   90.754898   31.852779
H   79.258217   70.335739   15.320418
H   94.231422   84.956581    9.072144
H   68.028366   75.477219   59.111279
H   77.975754   66.540115   71.923561
H   21.146389   34.599449   12.125697
H   91.013077   62.329594   65.867142
H   52.849236   71.492714   62.072590
H   65.362862    5.084251   72.070343
H   55.771126   59.432343   88.700867
H   25.504322   74.301422   87.907326
H   63.654652   46.124191    9.751006
H    3.456384   12.173958    3.059756
H   93.966743   57.716236   35.423576
H   60.565968   37.464527   70.566177
H   71.971977    4.229123   79.487762
H   28.876423   90.126732    0.504335
H   22.750805   46.037216   56.236374
H   58.296383   35.339680   86.732491
H   96.011124   71.875435   87.733360
H   31.981508   93.309708   49.890797
H    5.714539   84.607315   69.231163
H    9.342141   10.620522   19.352165
H   75.942238   41.765526   98.148216
H   50.976509   61.761009   47.798203
H    8.848660   36.386093   71.566116
H   80.504036   53.362068   18.658895
H   55.565147    9.823282   31.407494
H   84.121933   49.578316   77.572762
H   19.147684   54.645283   45.458260
H   77.302025    7.620471   64.162155
H   36.222225   60.951202   51.449463
H   82.180374   13.219228   97.609451
H   45.410015   88.652657   44.113724
H   49.588280   95.356094   58.302555
H    5.107631   51.334442   47.779114
H   71.348686   22.854078   81.254135
H   26.331125   92.690704   54.635849
H   13.883233   63.528645   26.643440
H   23.634081   19.815506    1.533862
