100
TIME:    0.450, STEP:   450
H   86.891029   80.754066   98.734024
H   88.752632   29.142998    6.386275
H   87.496063    6.278981   18.056129
H   81.552139   14.109907   15.496867
H   91.140442    8.827004   53.503654
H   21.038300    0.723881   23.310305
H   29.386433   91.723320   25.643358
H   84.517181   27.532803   66.877480
H   42.566139   43.027786   71.762184
H   62.542793   22.847122   25.311213
H   58.397125   84.349350   96.403435
H   38.665707   46.246773   60.897453
H   14.638259   34.481888   80.402275
H   32.800465    3.689814   91.484779
H   85.975716   29.827703   29.140848
H   83.430267   72.377693   95.686020
H   87.887230   11.756210   14.326489
H   10.760722   72.817108   83.945602
H   52.271515   97.229889   87.070648
H   80.468300   96.096985   46.887932
H   37.572906   11.417961   45.028900
H    5.496728   44.693886   80.939217
H   79.735878   90.962395   19.474998
H   77.231644   42.078800   73.654648
H   13.489229   50.486134   39.881546
H   44.595615   14.201093   46.994637
H   23.274393   23.770672    8.895849
H   94.571648   77.443665   81.649246
H   20.956100   89.919731   35.899872
H   18.248571   79.702255   19.162231
H   33.803471   62.396339   73.802666
H   94.170746   40.078194   57.605324
H    2.054547   35.557625   38.336510
H   97.115364   32.482788   52.793205
H   69.586372   24.903763   52.129387
H   11.680718   19.835543   19.095945
H   22.960201   88.055519   43.923473
H   45.390259   50.717937   54.195675
H   30.489513   70.901817   98.995743
H   20.808807   70.056465   73.439934
H    4.490025   71.620064   52.942753
H   91.177727   32.053902   23.941763
H   15.117145   66.198456   33.977333
H   50.623611   20.313002   24.730515
H   17.621658   14.137103   94.614807
H   72.204216   71.663628   85.082970
H   40.831654   50.016712   31.468451
H   56.263447    0.016491   96.421417
H   78.182976   95.180832   26.522894
H   35.327724   37.598682   52.190392
H   43.510288   26.199224   58.161610
H   27.001543   21.981972   44.520882
H   18.213762   24.617981   76.735512
H   66.267487   99.859627   51.673420
H    4.934446   97.953827    4.224600
H   94.129288   12.059015   77.307739
H   24.780052   76.562325   98.786079
H   92.550964   34.389946    1.963610
H   25.767593   57.782318   76.937363
H   29.323364   62.377495   50.810509
H   88.086746   57.642387   79.309784
H   82.939758   23.756821   74.994751
H    4.755558   76.466774    2.686187
H   73.940804   44.242371   14.922201
H   50.184258   24.903084   37.468719
H   73.701180   19.902271   72.793373
H   51.464500   63.917713   88.787827
H   49.281258   43.273544   87.715202
H   79.330711   17.452187   32.009243
H   39.502205   70.778465    0.784482
H    7.742270   64.786644   56.750370
H   36.862583   36.590981   89.568489
H   77.650772   96.048775   50.210667
H   20.286102   20.902475   76.463768
H   83.867844   29.283995   35.511402
H   36.297207   36.413246   65.649063
H    7.811685   87.541618   98.996521
H   53.122147   21.295986   39.292347
H   83.122429   52.184414   22.706116
H   77.456650   84.446754   82.153320
H   19.687969   33.937115    6.884364
H   75.087593   47.166397   49.150925
H   46.268490   14.768386   72.760162
H   81.125946   50.668674   22.327614
H   30.418867   20.735626    4.130067
H   40.936031   25.583092   73.032585
H   97.209190   70.634254   45.000881
H   63.199280   69.265938   91.061745
H   65.021675   69.116905   24.518967
H   26.550095   90.769913   40.299175
H   42.438419   97.730896   42.964916
H   11.582285   29.350012   42.097969
H   14.156845   41.114212   53.728142
H   90.721718   40.528595   57.158787
H   48.811954    9.420712   26.426762
H   31.089767   77.961296   44.205940
H   26.883265   93.505119   11.309025
H    8.517406   20.069153   48.835587
H   87.275200   38.790066    7.358059
H   67.188004   67.146080   54.344711
