100
TIME:    7.217, STEP:  7217
H   29.265612   60.187325   92.538651
H    1.161399   95.941643   33.159855
H    3.824363   93.124290   38.624737
H   82.687958   35.310883   44.574810
H   30.528410   51.231716   70.022842
H   16.100834   93.389381   93.469711
H   74.726166   48.664814   54.831951
H   52.644325   12.964688   45.553299
H   76.220238   92.408173   45.802837
H   77.637703   20.010424   90.292488
H   28.947266   56.634190   44.571342
H   80.388672   85.441666   79.215324
H   83.545525   25.149670    7.901284
H   97.738991   82.831062    6.456151
H   68.263680   25.374809    3.838117
H   11.343208   80.503723   33.967285
H   43.758949   59.317997   30.380335
H   55.399883   43.659714   49.347015
H   57.669498   81.115631   43.580730
H   98.080887   52.549809    7.699476
H   36.009705   37.742401   61.358509
H   54.281158   53.664658    4.684058
H   89.384850   35.926826   25.864019
H   48.494949   23.164522   71.077362
H   71.463081   13.815331   89.839088
H   13.578533   13.344555   11.730609
H   39.748943   42.475189   43.165562
H   23.592522   93.304878    5.327047
H   68.097542    3.874972   16.020700
H   77.725220   12.219152   57.119255
H    0.088565   69.217178   38.392937
H   21.442898   53.111271   31.150200
H   78.713264   40.451881   47.961311
H   83.036919   12.327668   67.710587
H    1.344355   13.241829   64.141296
H   99.999519   50.695389   96.736610
H   72.002548   40.234009   77.136749
H   65.698479   26.877491   31.724976
H   40.440960   24.169882   44.931152
H   83.432457   36.551853    5.852623
H   42.020355    3.817602   12.374163
H   92.004402   69.904617   48.400028
H   73.396759    6.780550   22.765652
H   18.514408   33.779625   86.375481
H   30.634842   47.145061   73.688179
H   84.966484    0.569992   12.481104
H   98.117477   17.323074   94.740028
H   56.628109   69.702744   15.124596
H   75.988960   34.737904   56.586639
H   77.261963   40.580791   78.920021
H   43.006039   72.888672   29.503880
H   55.874935   94.054474    0.285477
H   58.576153   63.855347   83.716988
H    9.565048   89.450653   50.282181
H   66.166641   91.068123   61.734707
H    2.584524    4.942140   46.943085
H   53.777279   81.302818   42.384270
H   88.663254   95.330467   27.662672
H   59.465439   43.710697   57.435997
H   82.771065   82.510849   58.341942
H   14.954273   42.947319   51.701080
H   42.772499   60.767258   68.809250
H   64.024071   14.807704   38.579102
H   38.618145   81.077133   31.197979
H   18.777126   84.434723   67.656746
H   57.995697   83.494957   72.909210
H    8.534788   97.873779   15.498862
H   81.838112   30.285891   11.216933
H   16.595497   31.218735    7.594132
H   76.599083   11.135329   86.536194
H   92.859383    4.357064   75.578102
H   78.963676   11.968259   85.049644
H   36.429779   61.328762   76.706360
H   71.331795   92.655701   74.344086
H   10.121865   38.941830   48.499439
H   96.269646   70.115990   10.317367
H   22.240517    1.150071   18.735815
H   71.048111   78.818962   13.006660
H    7.595672   32.320118   98.198982
H   45.596207   15.875165   99.170296
H   52.099541    3.945534   11.332965
H   82.854317   91.274017   83.229820
H   74.367348   27.811804   17.253365
H   46.667164   29.733784    4.256396
H    0.921659   97.455345   48.145119
H   85.191513   74.148117   42.953674
H   49.161900   78.617775   67.677757
H   72.098228   27.561983   20.748833
H    5.455692   92.341652   69.165047
H   28.258718   12.347889   82.206680
H   19.372120   63.127220   85.871628
H   12.283815   38.266357   71.036293
H   48.077045   44.065815   77.106270
H   44.761383   51.019859   13.430045
H   31.815960    3.273946   81.925720
H   90.016174   10.740783   94.681297
H   89.751091   81.848648   22.132812
H   24.346842   43.556141   34.000870
H   64.911827   67.966957   40.538242
H   87.486977   93.434830    2.503170
