100
TIME:    9.430, STEP:  9430
H   79.609772   57.245613   90.512589
H   40.042007   15.861139   72.697624
H   41.863911   52.335655   12.646236
H   83.059402   44.135124   23.271742
H   10.698328   28.613068   10.020311
H   81.786865   90.991875   12.630019
H   58.742306   98.095818   27.891460
H   78.706894    4.417451   42.362801
H   21.820473   79.635849    6.501925
H   17.191450   51.785831   76.943367
H   23.099396   45.677490   31.401903
H   95.922859   96.367958   21.691174
H   42.429916   91.203453   87.980118
H   88.164658   76.009987   74.867836
H   95.142769   27.698738   97.412865
H   22.363464   86.946579   50.268616
H   65.802498    5.692866   31.838453
H    2.721863   35.974998   72.634842
H   92.143219   73.954498   60.169041
H   38.454365    5.557302   58.370842
H    4.686777   17.431223    1.297362
H   66.443634   56.602448   16.226639
H   59.838112   17.935244   62.547195
H   42.875034   49.638397    6.719907
H   92.314194   38.314621    6.179657
H    3.142159   48.107101    3.476552
H   48.919952   50.484043   87.071579
H   36.865738   96.600235   78.478966
H   16.217648    4.655640   11.411171
H   62.581017   57.447006   33.046059
H   87.185493   67.661240   63.307510
H   61.173267   91.971802   26.281715
H   34.593903   78.538910   47.325829
H   76.541855    9.519453   74.480721
H   46.269173   45.686653   98.780731
H   92.371567   24.030886   89.780464
H   84.258514   59.188240   51.512409
H   74.231346   86.380379   87.890297
H   47.029697   75.953819   30.474991
H   74.992264   29.377953   79.967911
H   90.778183   79.747894   64.511192
H    5.504797   78.582916   61.377522
H   92.441742   20.056767   82.611259
H   77.212074   70.931557    2.749745
H   38.673279   59.845592   63.064693
H   56.403503   42.773632   21.471754
H   15.417085   37.675259   15.989407
H   56.763180   92.495941   52.052128
H   40.677505   51.456944   68.309387
H   23.719145   74.269218   24.186932
H   43.789265   59.309250   51.400192
H   63.427105   88.705063   55.015327
H    4.469614   76.687073   55.193970
H   58.310715   53.348000   47.935616
H   89.963905   85.005066   80.545349
H    5.340813    2.614279   71.607330
H   94.073593   17.448097   52.858955
H   23.878531   86.339729   70.659813
H   34.003124   37.221130   87.544334
H   36.735859   52.610165   95.398964
H   54.555134   40.032375   79.163139
H   64.228783   40.168961   68.679283
H   14.262946   63.796776   86.827057
H   90.581055   93.132202   71.117325
H    6.615004    7.684044   73.743385
H   22.049515   73.480400    3.759656
H   30.982388   74.380127   22.342815
H   28.971298   56.849373   17.011139
H   26.891687   72.206680   68.800842
H   21.543381   22.289347   81.842743
H   22.579979   53.781605   49.036690
H   96.730019   38.487694   47.260502
H   92.138367   51.862888   19.963390
H   22.619350   52.594555   42.854591
H   16.723448   42.200413   16.290380
H   48.590446   11.946898   61.408699
H   23.228092    9.609219   57.987915
H   75.010582   34.123558   35.233856
H   13.717155   25.819836   22.896128
H   37.068810   95.321968    8.518316
H   95.423500   26.840036   43.601677
H   48.915039    5.631079   98.090431
H   14.341513   64.821205   28.008533
H   98.918480   19.104725    2.133290
H   93.168930   59.015732   33.620819
H   34.259960   55.435165   96.630890
H   96.963219   17.714348   73.201942
H    7.688838   50.478554   97.805237
H   51.384525   69.124992   51.065559
H   32.599934   21.299957   61.314079
H    9.937513   82.622482   32.606468
H   76.023407    4.705896   13.207170
H   89.934784   10.460791   48.240959
H   57.702003   85.208359   64.084236
H   93.550552    5.046933   32.775887
H   72.800919   23.351484   80.377045
H   14.093490    8.847079   94.859818
H   20.075228   53.055798   89.569420
H   59.489555   77.523216   55.177044
H   24.945320   36.645695   89.317963
