100
TIME:    5.031, STEP:  5031
H   77.096596   60.652992   94.539993
H   61.531166   77.486923   95.325989
H   66.233963   35.853775   64.291771
H   82.321045   25.373646   64.398445
H   50.108841   76.014343   29.292892
H   50.006916   95.757637   76.983421
H   89.295616    1.053840   83.883759
H   24.459618   23.847614   46.264660
H   29.956352    2.583175   83.403664
H   37.355446   88.621071    4.696604
H   32.283661   68.675781   55.137486
H   63.824036   75.868752   34.816460
H   23.028488   57.355949   25.116455
H    5.976146   89.568916   40.101799
H   41.695976   20.638212    8.935995
H   99.237473   71.699356   15.423994
H   19.544167   14.733022   31.380125
H    8.652509   50.025730   25.125219
H   23.627941   89.409317   28.414804
H   56.970947   98.976845   58.866493
H   65.730049   55.366127   20.694653
H   44.707214   50.762711   90.842178
H   18.572929   53.705421   88.406799
H   51.606068   97.013641   33.426971
H   49.646271   87.175964   73.694923
H   23.612185   77.929092   17.325876
H   28.249754   33.343876   99.787697
H    8.041085   91.269791   33.070511
H   20.565651    5.543927   19.353996
H   93.904755   66.322411   83.338905
H   14.056134   73.194427   11.342232
H   83.417702   13.512378   33.519157
H   24.733803    0.390937   51.029167
H   90.672775   12.661538   59.802956
H   55.714508   78.615005   31.080956
H    9.974130   79.478004    3.609793
H   62.336464   20.289780    4.888495
H   56.049984   66.886467   77.464714
H   32.712452   71.800468   56.770889
H   89.329445   41.198006   33.862698
H   91.418915   28.809210   60.873882
H   79.462852   37.651726   39.158916
H   54.575787   93.669357   64.867073
H   58.096073   97.087952   72.640060
H   20.254072   33.393951   86.626488
H   13.180510   58.875446    3.599393
H   81.039352   98.440086   73.759285
H   56.508099   47.187637   79.867714
H   12.092964   15.782795   43.785927
H   31.392872    7.306387   31.789383
H   43.160786   83.932678    6.461695
H   49.629265   96.899857   43.786743
H   13.229316   51.180176   10.675890
H   60.182343   25.117798   53.820213
H   40.219635   99.497078   43.138897
H   99.861130    7.241599   21.359695
H   15.196136   44.379463   34.477501
H   51.436661    1.771471   83.967758
H   87.061134   51.341385   25.250046
H   27.024921   14.486936   20.516975
H   77.059845   44.606724   22.139908
H   20.355860   81.114243   67.719193
H   15.614511   63.976730   88.479675
H   88.509377   69.169144   90.547012
H   32.010773   59.027416   64.084206
H   92.283836   92.167259   43.655312
H   83.921692   22.297867    9.958538
H   32.840309    5.265021    6.713492
H    7.645385   88.290764   44.697693
H   32.314629    1.186150   91.139282
H   62.275703   53.090958    1.796152
H   59.137260   84.555740   24.967659
H   78.960526   69.451057   32.753632
H   19.457432   31.007320    4.229092
H    4.736845   35.812412   82.781708
H   44.595383   30.012243   57.405979
H   23.736795   90.492622   80.024284
H   68.345856   21.755241   92.282494
H    2.768987   38.741093   73.815956
H   52.795471   34.954250   87.496155
H    9.320797   81.329666   80.680229
H   18.807060   77.083817   66.088402
H   36.096954   91.255432    9.070205
H   96.274979   42.672897    3.913547
H    7.360851   34.193008   60.053368
H   35.503368   93.850945   91.151001
H    3.163848   37.558243   63.441025
H   36.936737    2.500963   43.423218
H   60.091171   14.054455   87.043709
H   21.530371    2.284897    4.064590
H   29.911949   45.090794   39.707317
H   50.541950   73.858673   29.388868
H    7.950298   78.477333    8.059528
H   33.493126   18.399599   66.031761
H   69.608025   99.082481   31.692070
H    9.461608   97.063568    7.591249
H   63.265190   56.399410   47.851685
H   25.332365   59.073639   75.527489
H   69.047882   58.536961   23.637840
H   51.704769   49.528881   13.088029
