100
TIME:    0.353, STEP:   353
H   93.450844   89.649483   98.822830
H   91.450859   23.883823    0.267694
H   85.829468   99.300484   19.195068
H   81.535858   18.106554   20.813784
H   92.009262    1.052029   56.133797
H   22.542454    0.829453   13.704025
H   34.470036   85.173866   18.057833
H   92.141190   19.141361   75.783257
H   44.950584   52.353912   77.867607
H   65.193657   21.454716   21.512529
H   67.419830   80.446320    5.747082
H   42.368183   41.384636   67.802132
H   20.808395   40.350494   90.043663
H   37.603397    3.988887   84.103508
H   84.796074   38.491577   33.803684
H   87.330338   80.861641    3.737739
H   95.685890    5.341484    5.494903
H    8.688024   77.534195   87.308395
H   50.761070   93.161087   81.959854
H   83.094002   98.130646   40.270393
H   43.329025   21.074890   47.661263
H   96.195656   44.565857   89.198189
H   81.030968   91.751289   22.250561
H   86.243988   40.915440   80.858307
H   16.958220   58.178967   39.165176
H   45.040386   17.091248   56.086166
H   31.638823   27.802841    6.971025
H    2.756395   72.916031   78.443344
H   18.846954   81.119041   40.485229
H   14.529370   82.102982   11.451267
H   29.987764   53.697777   81.478477
H   88.046082   42.757919   66.585106
H   95.222229   42.654716   29.597982
H   93.016960   41.372284   56.879768
H   71.997459   32.236191   46.223038
H    3.246728   12.215605   19.429708
H   13.656648   91.607765   36.280224
H   49.399117   52.493320   47.350941
H   34.850506   72.972481    8.292825
H   29.945110   79.136894   65.808525
H   11.118664   68.291313   50.656734
H   99.895531   27.700182   19.384527
H   14.281812   65.616776   26.971001
H   56.817841   18.687479   15.246387
H   26.035671   17.964188   86.314392
H   73.443062   69.840141   84.702583
H   39.807423   44.783810   30.639593
H   56.258266   99.017426   90.419601
H   75.347099    3.214553   30.392252
H   33.293324   36.122280   58.974442
H   43.517689   35.564064   57.138859
H   22.287786   30.982845   50.889023
H   16.201563   24.055542   82.368782
H   68.512802    1.442376   47.392963
H   12.656696   89.450638    3.401511
H   94.007919   12.160957   80.609848
H   18.630966   79.361198   89.560600
H   99.773865   43.550301    4.462208
H   18.117683   53.683914   84.383759
H   35.724068   54.921478   53.569420
H   81.968002   62.153000   86.873108
H   86.382477   24.659683   79.383255
H   98.176109   83.081352    9.340848
H   67.280342   43.714714   17.556044
H   46.333771   32.650341   28.435061
H   79.660072   24.724445   67.057976
H   59.246880   60.564541   84.104782
H   55.981682   37.726120   83.078041
H   74.496696   24.421989   38.093204
H   37.537369   65.900047    0.988459
H   10.822725   71.386421   57.913731
H   44.860317   39.810204   82.466957
H   83.975250    0.847134   52.697979
H   22.421150   27.040831   82.228767
H   79.190720   29.145975   28.158058
H   34.003788   30.196184   72.176315
H   99.004669   95.948601   97.279602
H   48.564911   27.638596   33.935116
H   78.473427   52.467854   21.624531
H   82.213699   89.729240   90.509979
H   17.789738   32.933605    1.087010
H   67.809929   46.532913   57.262627
H   40.131245   13.149339   63.521362
H   74.453644   42.368259   31.187508
H   35.141998   26.803307   13.532973
H   43.168766   22.020115   66.296638
H   90.730782   77.686943   40.375561
H   61.637772   77.032036   92.069695
H   63.008736   74.517799   25.312672
H   35.126045   94.761749   36.831295
H   38.468784   92.492813   40.916454
H    4.405129   22.054956   40.250061
H    7.933383   38.208031   46.224022
H   81.346748   34.644447   50.618954
H   50.488911   18.109653   24.198097
H   23.077972   81.791801   49.216087
H   34.582512   87.938454   16.887688
H    8.161256   19.243256   50.387474
H   91.896080   38.371937   15.483089
H   61.163982   69.637093   63.687119
