100
TIME:    9.244, STEP:  9244
H   92.188385   74.302803   90.682877
H   45.179031    5.781819   60.970081
H   38.666752   38.953850   14.829826
H   83.028183   51.798088   33.467133
H   12.365023   13.704401   15.063322
H   84.670410   91.193382   94.210022
H   68.490532   85.537071   13.346020
H   93.326126   88.325546   59.441277
H   26.392708   97.518936   18.209963
H   22.272421   49.115147   69.660713
H   40.400665   38.193329   49.319023
H    3.021637   87.044685   34.930519
H   54.290482    2.462090    6.464588
H   97.374405   76.583290   60.713726
H   92.883614   44.313179    6.357778
H   29.842659    3.214831   65.708069
H   80.759468   93.390099   14.906141
H   98.743729   45.025810   79.083084
H   89.245483   66.152466   50.370380
H   43.465092    9.507277   45.707085
H   15.724638   35.948074    6.346179
H   48.611629   56.355530   32.066269
H   62.321480   19.447260   67.868698
H   60.157856   47.413300   20.534040
H   98.966782   53.065826    4.806709
H    4.019585   53.590378   20.980082
H   64.959587   58.216541   83.382004
H   52.559204   87.918381   72.331566
H   12.172971   87.780205   20.203003
H   55.448784   62.050461   18.260036
H   79.865944   50.982632   78.023239
H   49.429066   97.111664   43.500679
H   21.491653   92.147766   30.569479
H   68.683060   26.565155   82.316811
H   50.898170   59.769478   87.465088
H   76.202713    9.462029   90.365120
H   66.417999   65.999763   36.856281
H   81.919853   89.783302   74.763924
H   54.881397   80.006676   48.499924
H   92.512070   46.791328   65.334488
H    3.490040   73.364929   60.129116
H   21.180054   77.853516   51.882542
H   90.841034   18.940670   69.175529
H   89.086830   67.809608   84.563179
H   54.806656   67.182976   47.147015
H   58.803146   39.225964   20.716101
H   13.962895   27.559038   14.203156
H   56.751827   90.580200   40.543491
H   35.241058   66.861183   75.728271
H   19.815290   71.436760   37.192257
H   42.866856   77.194786   50.875305
H   54.387646    5.964052   67.224983
H    0.611587   75.608582   65.996964
H   62.617584   56.383385   39.727730
H    4.773461   68.705658   78.964508
H    5.109150    2.809933   77.939209
H   82.281143   22.815010   35.168861
H   37.728210    3.905073   75.450584
H   19.333420   29.361155    1.823080
H   49.009373   38.313061    0.689243
H   42.820866   48.681591   93.663170
H   70.830284   41.900223   77.094353
H    1.635301   76.488914   99.581635
H   77.809448   92.118988   76.166367
H   99.232346   22.540257   56.422245
H   33.475227   82.727043   92.761787
H   45.905350   67.948914   13.362247
H   41.819534   46.212044    8.119263
H   17.620920   85.571457   80.465576
H   17.765823   12.947510   82.237244
H   28.486847   66.437996   51.267464
H   12.046615   44.663475   33.627522
H    4.265779   61.062702   24.732876
H   26.713360   64.365761   53.906288
H    7.764164   41.926533    2.188024
H   44.192757    0.025993   73.924576
H    6.334990   25.708538   54.688583
H   66.271965   46.284966   24.961227
H    4.798025   26.366177   20.820032
H   46.190575    5.454391   24.542259
H   91.782173   24.915781   32.484703
H   34.958511    4.423630   13.651224
H    2.576653   61.710606   10.294316
H   86.121330    3.188042   19.121174
H    2.225418   70.651474   51.651489
H   38.541286   48.602356   83.714539
H   84.540703   31.238060   64.332771
H    4.697621   65.361732   99.732330
H   47.524662   79.481346   52.586800
H   49.045506   28.952988   54.665749
H    2.325301   72.578323   28.678490
H   62.261288   90.716888    9.663758
H   78.011780    4.879599   33.857292
H   40.661842   73.995712   50.106274
H   96.766159   21.708172   28.502237
H   57.438095   30.695868   89.984131
H   28.856804   98.173149    5.556934
H   20.434252   43.853146   93.304405
H   68.350212   76.720024   70.756371
H   13.392612   41.418018    7.235559
