100
TIME:    2.459, STEP:  2459
H   51.029938   96.518578   96.894730
H   32.868736   38.067825   33.112904
H   22.022795   50.814087   94.471642
H   81.889343   31.340292    5.376297
H   73.146011   69.857208   99.031952
H   89.887337   98.544075   22.268606
H   24.094643   27.380913   82.749855
H   26.613747    1.337462   82.416924
H   93.181023   49.870605   45.302120
H    7.643255   51.690956    3.979951
H   71.524841   65.185730    2.886520
H   61.989693   46.947540   17.894701
H   86.845284   12.934603   80.724083
H   33.325905   97.496529   44.371624
H   10.410458   50.379272   32.569977
H    2.652752   96.655853   28.923456
H   26.367508   44.614601   97.239548
H   53.692451   75.119408   14.295704
H   83.564430   81.511688   92.912888
H   26.269249   53.593204   83.752815
H   18.356079   11.415646   90.501999
H   98.127075   47.348343    9.871674
H   52.912834   74.623329   61.995514
H   90.573746   66.173553   24.446907
H   41.635368   91.152924   54.704674
H   35.383816   54.337070   58.688934
H   50.036964   40.259571   48.762554
H   25.058920   71.217522   48.054142
H   64.639343   72.191750   40.933403
H   95.282982   29.979996   78.872215
H   12.833253   42.557842   14.831732
H   21.019783   84.572395   71.622124
H   43.566479   88.570488   19.323095
H   81.999519   48.370041   68.157318
H   19.647633   73.038544   74.463631
H   86.354660   77.652336   12.186849
H   15.649446   14.481916    2.224991
H   62.354073   13.947376   95.966972
H   41.278328   27.838316    6.017141
H   31.583445   81.980125   31.502829
H   67.194344   40.557278    0.277567
H   10.620300   22.218681   18.327253
H   32.421642   78.245834   79.089104
H   22.335196   53.984756   21.162306
H   43.355373   34.871159   66.534279
H   46.363087    9.818439   93.154488
H   60.942623   58.566620   49.061935
H   56.370739   20.701040   20.726875
H   36.908363   28.795078   46.384338
H   77.458000   68.174858   11.679623
H   43.357014   32.243355   79.344147
H   24.635103   35.562130   12.632412
H   59.889107   36.266846   60.056084
H   19.749409   67.089531   40.324677
H   44.999809   74.074783   21.271376
H   96.642990    9.947659    8.916641
H   52.140675   18.593895   89.858727
H   42.954437   44.665619   50.217972
H   84.212944   42.667965   22.704107
H   96.750946   16.794432   93.670784
H   14.816051   64.215034   22.673138
H   11.638634    5.055084   84.092667
H   41.025303   39.468315   64.861252
H   11.894060   55.170845   60.381908
H   29.923344   64.448944   24.562727
H   50.284920   20.028725   91.580620
H   90.277992   33.377209   85.782364
H   10.505898   58.170166   83.757019
H   79.458946   73.098274    6.007384
H   80.202698   71.824776   96.555176
H   43.948692   28.089617   32.652805
H   71.210571   69.915634   36.658043
H   46.660568   96.675438   98.695549
H   76.076012   93.768799   57.062874
H   80.729271   32.142948   87.806503
H   83.790596   65.172966   30.470444
H   90.216187   13.416758   34.538624
H   47.508617   89.932686   50.242359
H   79.430069   46.295872   45.114510
H   78.931313   75.032639    9.076150
H   59.002888   54.721142   26.957081
H   25.824883   60.286697   81.157204
H   73.382919   48.301056   64.107483
H   19.326824   22.581392   38.827332
H   32.597183   95.071732    9.379937
H   94.695190   99.376762   12.543740
H   31.385778   24.563599   40.797989
H   95.540207    8.420973   70.173622
H    6.713278   57.258827    8.082119
H   48.930264    8.103996   12.121842
H   24.655060    6.211187   85.391312
H   60.231792   80.440727   80.377174
H   43.057789    1.314385    9.149931
H   84.899483   62.390736   92.616508
H   14.075989   29.467361   72.592125
H   97.024872   98.628731   40.438522
H   67.418503    8.797462   95.769966
H   15.893743   37.174591   16.690266
H   91.572502   47.450077   39.071228
H   91.953506   15.541889   60.848907
