100
TIME:    9.535, STEP:  9535
H   72.508942   47.616554   90.416458
H   37.142075   21.551250   79.317802
H   43.668758   59.889900   11.413565
H   83.077026   39.809258   17.516336
H    9.757452   37.029282    7.173450
H   80.159058   90.878120   23.028522
H   53.239643    5.185985   36.102596
H   70.454102   13.501131   32.721725
H   19.239372   69.540558   99.892494
H   14.323160   53.293476   81.054543
H   13.332550   49.902420   21.287786
H   91.915825    1.631027   14.217438
H   35.734436   84.847633   77.545166
H   82.965607   75.686348   82.857872
H   96.418098   18.319618   92.362816
H   18.141338   77.762924   41.552795
H   57.359047   12.637651   41.397018
H    4.967337   30.865669   68.994705
H   93.779037   78.358871   65.700790
H   35.625729    3.327478   65.519737
H   98.455811    6.978073   98.447159
H   76.510086   56.741837    7.284920
H   58.436211   17.081686   59.543121
H   33.118603   50.894501   98.921692
H   88.558701   29.987328    6.954708
H    2.646838   45.011703   93.595787
H   39.865273   46.118923   89.154404
H   28.006342    1.501274   81.949272
H   18.500744   14.181959    6.448009
H   66.607277   54.848282   41.393379
H   91.317497   77.077209   55.000244
H   67.803055   89.070267   16.561333
H   41.990334   70.856491   56.785057
H   80.978271   99.896935   70.057121
H   43.656029   37.736671    5.169125
H    1.499082   32.255253   89.450417
H   94.329773   55.343025   59.786030
H   69.891060   84.459373   95.300346
H   42.597286   73.665916   20.299992
H   65.102051   19.547821   88.228714
H   83.602051   83.351181   66.984947
H   96.655876   78.994675   66.737999
H   93.345367   20.686821   90.195946
H   70.508583   72.693947   13.015674
H   29.565619   55.703175   72.049759
H   55.048866   44.776348   21.898333
H   16.238056   43.386204   16.997576
H   56.769588   93.577408   58.548939
H   43.746468   42.761150   64.121307
H   25.922934   75.868187   16.845375
H   44.374058   49.216362   51.597260
H   68.530029   78.962250   48.122780
H    6.647568   77.295898   49.095299
H   55.879417   51.634476   52.569099
H   81.603767   94.206345   81.437759
H    5.471590    2.503829   68.032883
H    0.730553   14.418283   62.845299
H   16.060328   76.423882   67.955345
H   42.284756   41.658348   79.483803
H   29.807262   60.681110   92.412514
H   61.179317   35.149754   70.977638
H   60.502129   39.191635   63.928825
H   21.391415   56.631859   79.626892
H   97.790833   93.704178   68.267059
H   10.782657   99.297615   83.521446
H   15.599554   68.260521    9.968274
H   22.557762   78.010651   27.412491
H   21.718262   62.854317   22.030746
H   32.125183   64.662048   62.215694
H   23.675873   27.562899   81.620041
H   19.245457   46.636715   47.777382
H   88.083092   35.001366   54.956539
H   85.292282   46.669445   17.270939
H   20.308216   45.949543   36.615730
H   21.781107   42.355022   24.251577
H   51.073013   18.676426   54.343918
H   32.764595    0.520971   59.850441
H   79.943672   27.258247   41.032921
H   18.752073   25.511417   24.068117
H   31.919434   89.602211   99.472572
H   97.479088   27.926310   49.877388
H   56.793724    6.312703   89.305717
H   20.982920   66.577187   38.008495
H    6.142331   28.090111   92.542839
H   88.056396   52.447624   23.442553
H   31.843082   59.292397    3.922464
H    3.975957   10.079839   78.208733
H    9.377346   42.076759   96.717361
H   53.563480   63.278664   50.206795
H   23.316519   16.979698   65.067398
H   14.234741   88.292572   34.823875
H   83.792343   12.602764   15.207482
H   96.665512   13.611464   56.360771
H   67.257362   91.533737   72.074272
H   91.735291   95.641792   35.188759
H   81.473480   19.205462   74.953690
H    5.759187   14.872651   88.821228
H   19.872553   58.250843   87.460960
H   54.487572   77.976631   46.381916
H   31.466965   33.951641   79.203445
