100
TIME:    3.262, STEP:  3262
H   96.726959   22.879204   96.159561
H   10.531492   81.605698   83.766006
H   35.825584    8.585643   85.049232
H   82.024124   98.254814   61.363338
H   65.953613   34.221188   77.258713
H   77.438484   97.674126    1.792267
H   82.008446   81.603722   45.545586
H   63.499527   70.805618    8.687336
H   73.441750   72.665359   94.755257
H   85.699547   63.220848   35.426682
H   96.831741   97.496384   25.537458
H   31.339294   87.198013   60.736229
H   35.766716   64.351837    0.913182
H   93.566154   95.021461    5.478863
H   20.179008   78.652451   93.970497
H   70.366394   26.422760   62.266945
H   61.796516   97.727478   70.341080
H   70.850060   36.069710   86.455750
H   96.074547   15.197246   35.216846
H    4.636917   36.543423   38.424736
H   70.705017   31.475014   68.704254
H   75.111465   48.414337   41.488831
H   42.191628   68.092583   39.021500
H   15.966400   75.804260   64.810310
H   12.916659   27.466347   60.630409
H   31.701597   30.413260   83.423683
H   80.793320    6.878710   64.697060
H   57.302998    8.698822   74.597404
H   82.099594   45.045914    2.976458
H   26.072445   10.105487   42.707886
H   44.435909   14.565667   51.299889
H   71.721901   62.383011   97.284401
H    0.127661   29.818390   91.663673
H   15.928271   74.779945   34.327316
H   99.685776   12.338042   23.361671
H   56.172543   40.732265    9.426904
H   92.667397   85.073715   65.498161
H   29.167343   99.250832   52.630848
H    7.381311   10.344370   28.199903
H   55.948818    6.805329   94.681435
H   12.317396   68.108627   19.197004
H   38.451195   58.260315   56.052536
H   39.338352   83.061188   37.091396
H   71.058411   67.442902   99.675377
H   73.700569    3.190915   35.249447
H   36.003338   25.134449   96.413734
H   67.219040    2.235755   56.775078
H   56.413624   28.968622   70.412010
H   60.378616   62.289581   14.350982
H   94.293358   80.390907   55.514874
H   43.295750   54.718597   87.810837
H   63.659718   61.050873   59.918980
H   76.542183   40.922913   13.416992
H    1.155773   53.986595   75.759796
H   81.067764   44.457695   28.092165
H   97.647720    9.103415   81.580627
H    3.049379   95.422844   66.230782
H   83.161125   68.831940   29.534866
H   47.543137   76.595993   61.058811
H   43.759895   78.516510   70.831551
H   65.470161   26.874569   60.063511
H   83.139854   97.579849   47.760353
H   95.517235   84.689873    9.785355
H   67.036369   59.538971   38.578037
H   61.798824    0.312896   99.344536
H    0.955494   80.109200   39.058701
H   25.852436   61.135944   24.552065
H   55.037148    4.093925   22.145063
H   19.479103   15.399803   55.646755
H   96.474426   12.211273   94.864288
H   18.448971   73.453194   23.018829
H    5.000832   43.265778   95.449860
H   94.302536   56.952923   78.110832
H   58.405521   42.953865    9.338188
H   19.446131   33.288586   48.679966
H    2.770925   16.635862   76.437653
H   63.124416   43.818428   48.739628
H   85.235016   37.426304   94.587173
H   17.938307   43.937206   54.077438
H   39.550789   31.297836   39.896927
H   74.712936   63.028545   74.951004
H   86.075821   65.530899   14.010996
H   24.185514   61.705627   40.589207
H   74.569778   91.295135   65.482544
H   93.496475   44.845135   31.538017
H   76.217957   28.872311   68.306366
H   85.016319   66.178947   79.088013
H    8.464914   44.130676   61.818810
H   23.379383   12.549547    1.512341
H   77.934326   75.068924   40.825958
H   57.517090   49.569538    2.349245
H   19.647463   40.826317   95.680931
H   94.555237   25.392973   71.259911
H   62.513439   11.096638   46.758080
H    0.190901   57.540401   91.044853
H   63.349411   66.918465   98.962181
H    3.680465   54.880032   49.589134
H   18.840597   44.011658    3.841583
H   53.319237   50.911495   71.810814
H   41.825794   94.926460   83.501022
