100
TIME:    6.704, STEP:  6704
H   63.958084    7.231928   93.008316
H   15.327873   68.145271    0.813445
H   95.003967   56.216408   44.648197
H   82.601852   56.445831   72.694824
H   35.123932   10.112501   83.932770
H   24.057751   93.945152   42.665913
H    1.614371   14.023123   14.714685
H   92.965111   68.582214   92.654457
H   88.830757   41.731186   78.094551
H   91.649391   12.644056   70.206459
H   76.665283   35.992390   93.986443
H   99.965897   59.727482   15.731060
H   16.270615   56.185650   58.878349
H   23.138874   84.412270   67.418495
H   62.032784   71.198509   28.507381
H   31.971310   25.372780   76.550293
H   85.011238   25.388577   83.679909
H   44.429279   68.622437   67.128456
H   49.681271   59.596321   16.555393
H   11.901344   63.442135   72.772118
H   66.451859   88.812714   75.283348
H    5.099350   52.983643   48.370743
H   96.234138   40.099022   40.541885
H   96.159447   17.027559    9.175676
H   89.811348   54.500107   86.050453
H   15.985708   28.472275   60.002167
H   83.985756   63.801918   32.985561
H   66.876755   69.359764   88.371201
H   56.942986   57.331219   40.269806
H   58.054066   24.916069   16.337383
H   79.900764   23.216537   78.979866
H   89.052002   67.284332   78.641212
H   42.578007   77.985985    1.746219
H   61.361855   59.341110   89.323029
H   14.112160   52.083168   32.928123
H   55.404781   10.514592   98.349129
H   22.800171   59.020630   36.714207
H   86.903877   36.266888   95.524910
H   62.096455   35.346550   94.645248
H   31.751900   84.577393   65.492416
H   77.080887   86.213753    0.289020
H   35.237457   67.892883   22.211529
H   68.981903    3.703239   85.711021
H   51.269665   25.169088   36.217369
H   75.132774   67.384384   29.790007
H   91.588768   90.785385   10.396963
H   94.109665   89.423843   89.816368
H   56.597446   64.419006   83.383469
H   60.991760   77.224281   77.049820
H   66.490967   32.772602   14.787917
H   43.041264   22.415728   24.096855
H   30.940205   41.658363   33.960487
H   47.934315   60.880798   13.510351
H   21.443672   97.818527   27.644680
H    7.012143   46.111748   57.370731
H    1.945583    5.481766   64.406815
H   21.256853   96.105110   93.593544
H   26.861746   43.777687   40.876572
H   19.007668   22.031719   96.817451
H   16.624664   43.080349   72.932884
H   82.593864   66.802872   91.699722
H   60.979866   65.542191   92.018555
H   29.194620   49.814369   73.757050
H    3.390843   78.282623   45.127476
H   98.415131   25.406525   19.883432
H   89.510254    8.997454   42.576645
H   49.694260   80.136078   90.730728
H   17.274818    0.945587   86.692566
H   91.027992   68.079651   39.769878
H   66.203819   85.333916   87.616425
H    9.149696   39.261368   81.730721
H   21.191954   29.032440   47.457787
H   69.877792   86.699310   89.856995
H   82.627251   25.123619    4.825142
H   85.397575   38.199276    9.606480
H   84.144447   37.236217   44.834938
H   75.649017   45.552959    9.638002
H   46.946438   12.361719   84.676552
H   82.994041   33.826962   92.476891
H   70.754623   43.821388   43.365532
H   42.059746   98.637619   80.671661
H   44.359398   87.947220   26.148151
H   41.918625   19.232580   68.399246
H   11.374570   85.834740   51.109653
H   25.900270   29.546005   97.874870
H   96.995773   55.304893    7.329307
H   14.899797   15.917378   43.216011
H   63.847771   68.614014   26.067795
H   94.809189   20.904226   73.360725
H   73.615677   33.455441   63.866272
H   98.377922   35.428696   75.038010
H   74.327011   99.684647   61.260521
H   15.192655   28.672527   37.435188
H   95.182869   19.896692   78.839447
H   40.684853   49.226753   70.137115
H   47.644516   30.997320   21.178848
H   30.470007   52.408447   51.636292
H   25.337053   18.173569   44.298286
H   89.350090   65.751701   83.506950
H   55.621197    6.599902   51.923504
