100
TIME:    7.849, STEP:  7849
H   86.526604    2.230574   91.960037
H   83.706711   30.189732   73.010757
H   14.688059   38.591980   31.204281
H   82.794037    9.271179    9.931665
H   24.865232    1.889283   52.886246
H    6.299354   92.704689   56.059486
H   41.603817   91.339279    4.255192
H    2.970375   67.639214   87.524574
H   60.684471   31.644119    6.019898
H   60.375740   29.085009   15.039158
H   70.160172   82.064240   83.693863
H   56.268593   17.120144   34.228142
H   43.245110   86.896362   45.094631
H   66.445656   80.883064   54.553379
H   75.939949   68.921463   73.442169
H   85.931503   25.226868   81.505157
H   92.937050    1.122164   87.913788
H   68.913574   12.906540   27.441177
H   67.512466    7.626982   76.876968
H   81.050369   39.130802   50.729012
H   98.505943   74.825012   44.207447
H   14.871614   54.503647   50.863419
H   80.946739   30.787382    7.780492
H   89.772659   30.725069   24.138489
H   48.858589   63.696411   94.506569
H   10.598675   94.714951   52.257156
H   85.251099   16.202776   55.707005
H   70.265099   22.804480   26.218012
H   81.839607   61.214619   86.146111
H    1.959353   96.576370    7.361893
H   24.962439   25.890976   88.391182
H   61.347927   35.651615   72.642830
H   23.229597   94.212608    4.896863
H    9.740369   54.408669   41.084732
H   85.615654   65.390587    2.590410
H   54.937717    0.195764   94.750038
H   32.620533   17.087923   26.935698
H   39.578598   15.310120   76.322929
H   13.762168   10.401297   83.686134
H   23.905716   77.386642   55.578346
H   98.828552   25.501249   27.263517
H   38.743050   72.383011   80.665031
H   78.835724   10.571672   68.413887
H   78.157959   44.387535   48.168621
H   75.812584   22.211651   27.770470
H   76.808037   12.622325   15.048700
H    3.056838   51.693733    0.806338
H   56.666683   76.212143   54.229183
H   94.466011   82.395821   31.373627
H   90.531494   50.200237   34.730057
H   42.962643   11.873106   36.166672
H   86.589661   35.409664   58.798889
H   71.683739   67.519897   47.013618
H   94.929291   79.141693   78.171341
H   15.845798   46.454056   67.108200
H    3.371679    4.277337   25.428314
H   93.845016   63.066856    2.492587
H   41.602707   35.646507   11.382283
H    9.307995   70.417366    8.918125
H   41.065346   31.088436   40.366356
H   54.821728   13.557173    2.427005
H   20.341591   54.884689   40.212097
H    6.928710   71.681305   95.240967
H   82.016960   84.519882   14.037412
H   43.863564   33.957485   26.512442
H   19.171543   52.076256   10.278308
H   57.828644   19.723228   46.012371
H   38.181740   66.430046   41.430191
H   48.096169   85.807259   67.958405
H   89.433861   42.878651   85.195999
H   72.791145   61.356339   67.998268
H   26.921635   90.981834   31.375055
H   95.221191   30.069029   60.504017
H   57.418430   52.655605   36.792084
H   40.564835   39.872433   96.418259
H   11.210471   10.619667   67.790077
H   79.639366   46.450180   29.944036
H    0.740544   37.495525   47.911404
H   37.900871   30.463734    5.251152
H   14.603122   81.446983   44.722786
H   64.472221   10.483865   49.106918
H   30.279476   95.372528   30.357204
H   14.341031   38.381138   77.442535
H   90.148033   83.814941   46.531849
H   70.149078   57.917515   86.880562
H   70.649033   97.360153   86.841492
H   91.371742   32.666237   97.813866
H   82.262535   76.989868   14.196037
H   18.573219   57.152321   63.996101
H   72.382416   86.346573    4.800879
H   45.236134   97.255638   99.218307
H   59.045414   85.799438   83.081093
H   88.589615   63.029865   25.979799
H    5.841855   89.362633   56.044781
H   20.887402   46.664551   96.448914
H   42.216827   85.783936   62.037865
H   39.585320   18.117386   85.785316
H   23.126932   74.827034   21.312742
H   34.804649   70.696083   87.601097
H   26.743067   77.214371   41.621471
