100
TIME:    5.146, STEP:  5146
H   69.319496   50.106880   94.434708
H   58.355049   83.718079    2.576832
H   68.211578   44.127472   62.941669
H   82.340347   20.635353   58.094521
H   49.078796   85.232101   26.175121
H   48.223202   95.633049   88.371819
H   83.268013    8.819412   92.876907
H   15.420845   33.796230   35.705387
H   27.129433   91.526382   76.165276
H   34.212669   90.272301    9.200117
H   21.586639   73.303085   44.060558
H   59.434502   81.633141   26.630789
H   15.690079   50.401833   13.689453
H    0.282194   89.214455   48.853668
H   43.094521   10.366160    3.407926
H   94.613678   61.641068    5.877851
H   10.296442   22.339069   41.849030
H   11.111587   44.430676   21.138842
H   25.419113   94.233154   34.473118
H   53.872917   96.534218   66.696236
H   58.905785   43.917191   17.573372
H   55.732376   50.915375   81.048859
H   17.037514   52.770134   85.116623
H   40.920452   98.389374   24.886040
H   45.533112   78.056473   74.544228
H   23.087950   74.530121    6.511740
H   18.333162   28.563347    2.069580
H   98.337807   96.637604   36.872200
H   23.066185   15.977514   13.918186
H   98.314468   63.476189   92.481209
H   18.582195   83.507156    2.243797
H   90.678902   10.335164   22.873024
H   32.834263   91.976875   61.389275
H   95.531708    2.122613   54.958061
H   52.856003   69.921921   38.083328
H   19.970564   88.485191    3.248093
H   73.366760   16.077915   13.949861
H   51.297215   64.782509   85.580482
H   27.857906   69.294670   45.626404
H   78.497307   30.431736   42.911121
H   83.559341   32.754791   63.583233
H   69.127312   42.813354   44.560947
H   55.566349   94.358978   73.174110
H   50.753277   99.018188   83.884567
H   10.278696   28.857018   96.467186
H   11.696640   61.068897    4.066880
H   81.937790    4.694326   74.863029
H   56.514240   48.372101   86.983269
H   15.454208    6.258811   39.198105
H   33.804790    9.056761   23.746437
H   43.152012   72.830307    7.674016
H   55.218178   86.229156   36.236885
H   15.614694   51.846985    3.996832
H   57.519493   23.241081   58.894981
H   31.063248    9.575423   44.117176
H    0.004998    7.120630   17.444824
H   22.486313   41.061211   45.414925
H   42.873428   90.911201   81.005722
H   96.131493   56.200317   16.421406
H   19.436459   23.326542   17.246101
H   84.314026   39.259090   13.173888
H   16.274725   80.043839   62.516075
H   23.421881   56.129440   80.593781
H   96.405800   69.795593   87.425293
H   36.575783   49.842121   74.793510
H   85.219170   86.450249   50.455009
H   74.695160   26.273716   15.511040
H   24.896507   11.842257   12.211158
H   13.377098   80.027596   37.484749
H   34.644073    6.970394   90.897125
H   58.624046   45.266479    0.416548
H   49.655411   80.739136   33.387512
H   71.462433   63.762161   29.804756
H   16.926189   23.729012   97.396263
H   10.281295   35.976482   91.499359
H   47.314384   37.382996   49.668362
H   34.178150   80.525581   82.058052
H   73.748764   14.235653   98.632973
H    8.283450   38.403301   75.098686
H   47.155670   28.690865   77.588776
H   11.571058   82.519394   87.553627
H   27.436096   77.834854   56.472313
H   43.371315   93.178650   20.022406
H    4.186964   52.513596   93.409821
H    1.761102   26.999367   48.905373
H   32.856312   98.074654   99.136917
H   10.844442   29.196808   68.924652
H   38.788010   93.293823   42.227348
H   62.477646    7.651552   86.103157
H   11.362748   97.553635    8.175442
H   34.618217   51.300014   42.135906
H   59.050785   82.507889   31.579687
H   15.321830   81.927193   16.952656
H   44.608658   25.375212   73.786049
H   67.619881   88.782036   34.334690
H   18.960129   92.522247    1.651165
H   54.136925   62.999065   41.237991
H   25.754385   60.052795   73.686745
H   63.569519   59.032681   14.005081
H   58.847523   46.578251    2.009566
