100
TIME:    3.343, STEP:  3343
H   91.249176   15.451084   96.085403
H    8.278179   85.997070   88.875473
H   37.217896   14.412894   84.098778
H   82.037720   94.917717   56.923145
H   65.228104   40.713696   75.062408
H   76.182747   97.586372    9.814123
H   77.762917   87.072853   51.879890
H   57.133087   77.813522    1.250090
H   71.450615   64.877563   89.656914
H   83.485939   64.383888   38.598778
H   89.297318    0.755592   17.735140
H   28.247536   91.258148   54.970467
H   30.614525   59.451248   92.862175
H   89.555458   94.771797   11.643223
H   21.164379   71.417130   90.077217
H   67.109634   19.338226   55.543312
H   55.282997    3.085095   77.714828
H   72.580406   32.130699   83.647644
H   97.336464   18.595522   39.484005
H    2.454826   34.823582   43.939598
H   65.898361   23.410980   66.505478
H   82.877014   48.521866   34.590927
H   41.110161   67.433815   36.704071
H    8.440628   76.775726   58.794346
H   10.019719   21.042435   61.228615
H   31.329882   27.999735   75.831169
H   73.808899    3.511558   66.303810
H   50.468746   12.479630   77.274498
H   83.860840   52.394943   99.147652
H   29.178108    8.100602   49.147247
H   47.624073   21.829077   44.891426
H   76.836311   60.145302   89.785820
H    5.833323   23.892262   98.960793
H   19.350956   67.356758   30.914925
H   97.672394    6.214932   28.293777
H   63.216076   47.095615    9.147523
H    0.436634   82.107407   71.880669
H   25.819740   97.768913   58.346554
H    3.962101    8.579725   20.350618
H   48.319843   99.222290    1.054107
H    6.781815   70.888306   21.105330
H   31.171379   61.895897   59.858063
H   40.036053   83.546921   42.941822
H   65.885910   68.799988    7.595127
H   66.674126   99.995209   42.180721
H   34.958332   26.679401   96.742500
H   67.851852    6.640970   57.553116
H   56.417950   29.802588   75.423836
H   62.746101   55.581398   11.119714
H   95.991570   81.623161   49.849842
H   43.289570   46.898666   88.664886
H   67.596252   53.534370   54.601254
H   78.221855   41.392578    8.712612
H   99.279961   52.664734   79.334198
H   74.618515   51.556442   28.780905
H   97.749069    9.018133   78.823196
H    8.184337   93.085640   73.934532
H   77.129631   61.182571   27.448254
H   53.931206   80.018372   54.840069
H   38.414978   84.742050   68.527718
H   70.579628   23.107822   53.748363
H   80.265007   96.825912   44.095108
H    1.016089   79.162651    4.230942
H   72.598198   59.979591   36.378643
H   65.013985   93.843849    6.887891
H   95.979530   76.082436   43.848053
H   19.353439   63.936016   28.462957
H   49.441948    8.726554   26.017332
H   23.516373    9.579659   50.566334
H   98.115784   16.285456   94.693726
H   15.876633   67.942039   22.047054
H   98.322006   40.577560    1.380082
H   89.021271   52.946552   76.034416
H   56.622143   37.827713    4.525103
H   23.351461   33.404148   54.820225
H    4.685946   21.827211   70.987061
H   70.478462   36.797546   50.172108
H   89.040543   32.129589   99.060120
H   21.822317   43.699284   54.981544
H   35.578407   26.886379   32.918686
H   76.297440   63.866528   79.792267
H   92.153046   66.059891    7.237616
H   29.310431   63.057770   48.304081
H   80.142731   98.226410   58.084572
H   89.552521   39.778309   23.685951
H   74.354126   31.847580   73.931229
H   90.426125   60.289589   82.950394
H    9.768545   37.645584   60.976501
H   25.060600    8.039677    0.849653
H   70.773163   71.736771   43.721199
H   60.831940   53.942989    4.059854
H   25.640951   46.917755   97.224648
H   99.747513   27.823492   77.523766
H   70.342140   16.009895   52.219177
H   98.790520   50.284687   92.906212
H   70.039673   63.719795   94.778450
H   97.251099   59.528484   44.930794
H   19.137846   44.701324    2.545523
H   49.460564   51.260654   65.026619
H   46.856777   92.847572   75.698395
