100
TIME:    7.679, STEP:  7679
H   98.023186   17.820057   92.115677
H   88.401840   20.977161   62.292164
H   11.765924   26.361595   33.200100
H   82.765503   16.275612   19.250153
H   26.388556   88.263054   57.495773
H    8.935824   92.888863   39.223167
H   50.512890   79.860855   90.960953
H   16.332039   52.932240    3.132836
H   64.863396   47.988892   16.720802
H   65.018990   26.644060    8.382320
H   85.973160   75.223877    0.069742
H   62.757469    8.599155   46.329124
H   54.085411   97.186737   61.988018
H   74.863167   81.407051   41.615833
H   73.875130   84.106705   81.618439
H   92.766678   40.095642   95.616486
H    6.607542   89.877304   72.438019
H   65.279388   21.178665   33.333939
H   64.863998    0.494948   67.919907
H   85.631363   42.740345   39.154610
H    8.593964   91.748230   48.820866
H   98.573547   54.277969   65.340500
H   83.216484   32.169411   12.644555
H    5.567736   28.691378   36.764351
H   54.938911   77.177429   93.251076
H   11.400219   99.726547   68.255272
H   99.909760   23.269464   52.333515
H   84.609886   14.869452   20.598772
H   78.143166   45.790730   94.182304
H   95.440765    0.783885   93.847466
H   18.271879   10.646835    1.841027
H   50.613979   40.348042   88.380592
H   11.254944    6.650543   89.581917
H    2.557275   69.988197   48.246750
H   89.846458   78.261986   92.247894
H   40.159733   86.880783   95.284401
H   16.315357   23.314157   13.540372
H   46.604431   18.421543   64.325706
H   20.938351   14.104872    0.160586
H   39.917473   93.300797   42.202415
H   10.446577   19.668653   23.258390
H   53.069679   71.716354   71.985527
H   77.372711    9.551908   56.134747
H   89.013824   41.534142   31.547585
H   90.559441   28.918423   13.222702
H   79.002556    9.380481   14.358049
H    1.727902   42.448738   99.174202
H   56.656307   74.461197   43.710537
H   89.495918   96.476021   38.155563
H   86.962158   47.612728   46.617035
H   42.974316   28.285955   34.374222
H   78.327789   51.185040   69.958252
H   68.158501   66.534180   56.886360
H   98.866974   81.914673   70.669510
H   29.381908   31.555470   65.663345
H    3.159944    4.456161   31.215515
H   83.066971   67.972099   86.324181
H   54.261398   51.700737   15.761270
H   95.900017   63.234455   21.969158
H   52.283073   18.021191   45.201561
H   44.098156   21.462917   15.681342
H   26.375221   56.467026   47.904587
H   95.387566   83.281647    6.898376
H   70.343987   83.593826   18.653286
H   37.115288   47.535748   10.680648
H   29.614315   60.527489    0.226263
H   71.467865   13.846004   37.804974
H   49.924751   56.707756   33.303207
H   39.622887   98.022377   78.619720
H   85.981255   34.340519   85.556564
H   78.189247   72.922958   70.037148
H   40.920361   96.626366   18.914156
H    6.305502   38.477612   64.863098
H   61.160267   63.414196   46.893097
H   32.375595   39.622112   83.528702
H    7.191369   99.724144   79.229591
H   64.199913   61.164612   26.929167
H   92.753708   48.610790   38.522442
H   29.749243   30.963078    3.353970
H   22.939625   90.707542   59.368477
H   61.144127    8.725137   38.946243
H   17.522861   94.270081   44.578854
H    3.588156   35.538120   61.253197
H   78.451714   69.267822   62.058201
H   78.426514   68.552147    3.360139
H   74.560776   91.116409   75.036224
H   80.017830   45.026619   89.707634
H   79.528465   90.592773   15.958656
H   15.044740   66.617805   65.386482
H   87.412018   93.339981   98.723801
H   38.279041   88.075493   95.628220
H   46.467136   73.013641   79.841194
H   77.692245   57.928776   12.833438
H   89.411781   79.048912   44.581921
H   23.827045   61.892593   92.542358
H   28.175537   92.497192   70.818535
H   53.079277    8.361768   95.562080
H   23.455072   66.414711   24.725790
H   42.903099   69.961983    1.839692
H   16.184214   81.577469   57.998653
