100
TIME:    1.069, STEP:  1069
H   45.029945   23.988472   98.167313
H   71.534050   62.706280   45.432400
H   98.131348   50.811947   10.788055
H   81.656036   88.606590   81.568230
H   85.596115   58.442589   36.719551
H   11.439625    0.050196   84.612389
H   96.944786   33.521725   74.049965
H   35.865005   81.083817   10.041407
H   27.349937   83.513336   32.796989
H   45.626457   31.732685   49.552292
H    0.819258    9.256030   36.778107
H   15.038563   77.274223   16.836454
H   75.262466   97.031227   18.879263
H    2.151356    1.781312   38.591793
H   93.503532   74.537109   99.385574
H   58.542191   18.233868   44.304184
H   38.120522   52.691666   70.685234
H   23.988243   42.715286   62.486130
H   61.910332   23.198755   19.682154
H   63.715004   83.113388   89.115166
H    0.840655   49.795631   28.230099
H   64.850517   45.510895   28.231846
H   71.471336   85.928108    1.763855
H   19.719879   49.502720   27.681175
H   91.350945    1.394741   44.449776
H   41.757336   95.757172   88.975616
H   69.898575   98.039200   21.179319
H   42.341705    6.336640    2.107736
H   34.415497   46.079807    6.640693
H   41.982967   64.382156   68.371056
H   58.153172   17.906397   24.820255
H   33.254368   22.977676    0.301414
H   45.657024   90.269508   94.100914
H   23.269814   75.755287   26.715513
H   54.200157   78.111885   89.823654
H   65.500305   68.459976   16.966055
H   82.329765   65.387062   92.698433
H   19.807961   39.388432   97.878624
H    2.661154   57.687996   39.668564
H   62.504631   12.106722   22.140413
H   62.185722   92.862297   67.529709
H   35.545555   59.836929   53.023502
H   20.448759   69.910416   78.687691
H   11.096739   30.686182   85.255013
H   63.926559   89.713852   47.586258
H   64.296074   83.306313   87.512703
H   47.367725   83.407440   36.757759
H   56.296505    6.389783   34.721569
H   96.279961   43.914192    1.830153
H   48.310139   47.020260    8.898361
H   43.463062   66.438484   64.688232
H   57.084084   64.544785    3.883009
H   31.054499   28.207153   40.784065
H   51.935154   89.762718   78.988907
H   55.657707   52.219677    9.477306
H   94.903793   11.408478   56.235519
H   64.020096   58.701469   57.658257
H   46.458435   75.933723   86.019974
H   74.586082   83.936050   29.415302
H   88.475937    9.954062   33.204674
H   27.134329   28.858170   31.048088
H   60.970245   17.995255   46.986893
H   46.742935   34.256218   60.220558
H   16.445162   47.609581   98.115013
H   74.753853   75.465477   95.114891
H   35.674843   89.129982    9.393187
H    1.800266   85.320496   18.673763
H    6.522618   78.674118   17.306982
H   10.179995   72.974808   93.186073
H   52.040695    1.909998   99.482117
H   88.086113   22.666430   49.326450
H   85.823074   16.047691   34.888557
H   37.291473   65.427467   34.338024
H    6.662225   81.731644   39.674751
H   13.713168   30.164759   82.435112
H   50.932529   76.086327   23.999855
H   64.014275   33.892937    9.949644
H   82.203888   80.822014   73.477905
H   12.791651   50.370945   29.608189
H   47.099808   50.735008   28.825775
H   31.801426   40.340954   43.879864
H   21.530704   51.208939   97.387894
H   85.435555   25.099203   31.716740
H   23.707151    3.637306   65.788704
H    0.277402   82.017715   44.124840
H   26.687962   48.321720   16.018059
H   38.550819   25.627922   74.517105
H   73.163956   19.707611   84.629570
H   77.867134   34.651405   19.453983
H   71.823532   65.296234   62.429256
H   67.770424   31.155096   56.037060
H   57.382130   75.905220   53.890289
H   53.872810   59.659843    1.615297
H   50.551285   78.076180   98.896309
H   38.110554   53.975861   40.650291
H   82.216583   53.517143   12.233831
H   77.750290   29.027983   75.709824
H   10.790154   25.339569   38.932304
H   57.787315   41.458332   55.505329
H    5.629959   51.246037   94.725655
