100
TIME:    5.797, STEP:  5797
H   25.294729   90.407799   93.838699
H   40.375465   18.994085   43.625195
H   79.406601   90.963791   55.297863
H   82.449615   93.813080   22.409191
H   43.247849   37.412537    8.525299
H   38.125828   94.927773   52.843189
H   49.148701   52.779789   43.786030
H   64.253525   90.116348   75.933052
H   11.126610   28.935577   35.186211
H   16.424772   99.619698   34.693729
H   61.032211   99.497650   81.352791
H   34.585922   14.264063   80.292488
H   74.148331   11.034161   49.002617
H   68.048088   87.207893   98.393410
H   51.011497   52.215927   72.117126
H   68.438980    4.702161   51.839569
H   57.946877   65.395866    1.112124
H   25.032911   12.756290   98.572304
H   35.557835   21.544008   68.769119
H   36.335373   82.706825   11.019281
H   20.274513   79.107910   99.904213
H   18.144379   51.779587   25.610153
H    8.344632   47.475594   66.491364
H   80.433479    6.177218   76.538239
H   22.250095   26.428604   79.352028
H   20.120325   55.286736   45.293587
H   62.198128    1.501544   14.987103
H   43.407574   27.024055   58.393066
H   37.221382   75.041260   83.145264
H   23.275715   47.364098   44.233139
H   44.204285   41.883633   50.738747
H   31.783237   92.348068   62.606728
H   78.690544   44.345879   20.036497
H   23.038857   42.462212   27.532152
H   36.674377   20.710932   77.724564
H   76.561020   39.474968    1.200711
H   35.806908   92.235962   65.246254
H   24.392406   52.867634   31.519711
H    0.377530   55.109673   82.540123
H   17.181181   69.488319   94.130150
H   39.067322   55.090202   78.920509
H   11.674489   64.336075   75.905602
H   61.173794   98.262833   20.197781
H    9.186460    9.945395   47.535545
H   53.808262    3.173416   52.175518
H    3.296039   73.485733    6.712138
H   87.023727   40.099075   81.111183
H   56.549007   55.077194   27.263403
H   34.481773   52.341530   13.228707
H   47.458347   18.965399   78.213913
H   43.103542    9.980360   14.536803
H   86.856285   25.820831   93.498970
H   29.119213   55.621704   66.189751
H   42.445450   12.617629   87.622581
H   79.228996   66.627258   49.655087
H    0.815898    6.435842   95.283234
H   63.754921   22.277016    7.330385
H   94.399323   29.432840   64.238022
H   47.473206   83.706276   66.445412
H   76.475983   73.365479   98.730125
H   25.380051    8.985235   62.414974
H   93.171059   73.984421   33.058365
H   67.619972   11.705940   35.952759
H   41.109322   73.341843   69.753647
H   62.417709   97.847000   35.418797
H   45.227013   54.086998   88.947212
H   22.464512   48.778629   46.941849
H   79.927238   49.074253   43.332722
H   45.824680   33.250877   96.654083
H   47.830757   39.714508   89.526306
H   37.952492    0.972711   92.608742
H   95.978348   59.133835   81.051498
H   29.016533   31.562813   13.111557
H    2.597126   82.526512   58.715324
H   41.667591   36.905262   40.850357
H   62.706299   79.106743    5.865494
H   93.284813   24.100298   93.570946
H    4.333933   71.669807   34.586533
H   39.499691   36.491108   82.360054
H   15.234768   93.229195   21.504314
H   24.310305   89.254288   26.461828
H   76.292297   82.065201    2.021513
H   84.548042    4.065382   82.020721
H   48.973564    8.220694   33.950573
H   70.063301   86.279228   85.798325
H   17.871670   21.986805   44.344559
H   54.323250   81.863655   99.966751
H   49.260704   41.191914   35.471886
H   75.987167   71.404610   80.778816
H   53.806614   70.772995   31.446665
H   61.259789   86.452774   55.883831
H    7.218194   31.468687   43.981628
H   57.052322    1.456752   67.295486
H    7.525729   64.870430   17.681719
H   56.365257   30.469700   49.294498
H   72.730011   66.814423   68.026306
H    2.464100    0.358837    3.798331
H   27.087778   73.292877   62.504440
H   32.557220   61.838886   59.478584
H   99.286057   29.874802   39.297482
