100
TIME:    8.434, STEP:  8434
H   46.964836   48.583031   91.424454
H   67.549942   61.891811    9.895293
H   24.743639   80.679916   24.337654
H   82.892227   85.169060   77.867134
H   19.623209   48.779545   37.024048
H   97.227783   92.070915   13.992934
H   10.944776   30.842012   50.002949
H   56.990524   18.250536   33.811966
H   46.304054   75.397919   69.198105
H   44.397499   37.484745   37.945930
H   15.744888    5.602965   27.344275
H   33.939224   46.443340   92.588142
H    5.941449   51.486946   86.959335
H   37.479515   79.079933   99.070244
H   83.045357   16.666367   45.309151
H   62.410461   74.060448   32.945587
H   45.894966   39.813938   41.168648
H   81.419449   84.440636    7.163110
H   76.626312   32.170086    7.698789
H   65.286362   26.708776   90.558571
H   63.791206   16.585598   28.331343
H   70.956139   55.280243    1.045291
H   73.136147   26.031847   91.042984
H   35.417511   37.723358   80.692184
H   27.935562   17.301491   98.826942
H    7.840252   77.469162   97.204895
H   34.805473   91.885208   67.314499
H   20.905550   50.110310   45.556374
H   94.559715   14.290623   58.492149
H   24.389816   82.097763   53.867218
H   47.987385   78.348396   42.107841
H   98.285332   19.490383   18.486412
H   64.437759   51.410561   57.598282
H   34.459274    0.797016   16.440374
H   71.056709   21.097832   38.184048
H    5.791116   46.017868   92.911201
H   88.729332   95.662849   73.031578
H   15.399961    4.604029   17.605698
H   89.069756   97.656212   26.994820
H   68.804092   22.620241    1.603714
H   58.847244   45.572243   41.045864
H   89.442230   74.677094   10.531831
H   83.870209   14.080860   10.670584
H   40.804264   54.209579    5.367312
H   25.069092   99.132591   77.831230
H   69.256310   23.778084   17.425352
H    7.630090   83.507393    6.424477
H   56.702389   82.237457   90.425697
H   11.566208   33.946136    8.037426
H    2.813437   59.104313   93.826958
H   42.922474   55.395363   42.334808
H   15.020964   81.126617   20.396877
H   83.814705   70.911926   13.038527
H   81.379028   69.599380    3.986132
H   69.267220   97.719849   72.080200
H    4.100296    3.661974    5.513535
H   30.930908   46.187050   58.131050
H   98.043152   80.399849   96.313622
H   55.447414   95.134544   64.009003
H    2.462773   76.053940   23.727562
H   91.723434   86.351196   56.814037
H   99.578758   49.439590   13.742329
H   46.645298   31.762468   55.125763
H   22.187065   87.706604   98.154129
H   67.084976   87.234467   80.990433
H   83.235054   22.994072   44.868259
H   10.892672   39.947323   74.255478
H   97.771530   99.886162   69.396576
H   77.252197   43.772881   31.266953
H    1.314919   72.261124   83.955231
H   54.212971   21.551109   60.982124
H   78.747498   71.558006   74.254074
H   57.078720    1.132027   45.503216
H   44.542110   15.632408    2.034544
H   68.745453   40.733829   40.773121
H   25.041529   48.113701   28.428522
H   32.770340   95.815674   40.320526
H   28.222200   99.245934   80.222717
H   65.952370   28.745403   11.779692
H   85.914391   49.579765   94.324669
H   75.924782   16.535959   84.071594
H   74.176132   99.166245   81.415260
H   51.344322   48.164463   33.154720
H   30.395443   33.875221   93.102104
H   41.664963   21.323772   30.171268
H   57.185772   18.847939   27.465912
H   30.442644   90.131645   25.708961
H   91.670952   30.176731    8.130554
H   30.715343   24.580427   59.211555
H   20.659651   62.280701   25.712671
H   69.176720   28.842602   11.572776
H    2.329492   29.796436   94.230156
H   26.089024   80.579399   71.218750
H   62.378166   24.853870   95.490501
H   10.771568   94.262741    9.891233
H   90.535385   62.682434   31.822029
H   93.151390   51.688622   52.141747
H   21.997744    3.774986    9.567842
H    6.936797   73.222252   38.601818
H   63.077946   62.200718   85.266159
