100
TIME:    8.598, STEP:  8598
H   35.874016   33.543358   91.274307
H   63.020523   70.778275   20.236008
H   27.562639   92.478928   22.412651
H   82.919754   78.412468   68.878365
H   18.153650   61.924870   32.577209
H   94.685303   91.893242   30.234406
H    2.349725   41.916565   62.827961
H   44.100449   32.438129   18.753525
H   42.272621   59.630035   58.874912
H   39.918129   39.839542   44.367195
H    0.490020   12.201648   11.546988
H   27.679367   54.663860   80.914253
H   95.483627   41.561012   70.660934
H   29.359297   78.574440   11.551052
H   85.037300    2.017085   37.422707
H   55.816528   59.716454   19.331722
H   32.707100   50.660770   56.098213
H   84.925369   76.460350    1.478377
H   79.181305   39.050549   16.338474
H   60.867939   23.226004    1.724446
H   54.059212    0.258476   23.880125
H   86.678978   55.497955   87.079178
H   70.946510   24.698671   86.350906
H   20.179380   39.685272   68.512802
H   22.070465    4.295052    0.038106
H    7.066685   72.634445   81.772339
H   20.663427   85.068558   70.567673
H    7.067877   57.765278   50.977913
H   98.125694   29.169550   50.739586
H   30.677826   78.038803   66.904938
H   54.442432   93.055244   29.132683
H    8.640287   14.959641    3.304149
H   75.989029   39.411354   72.372696
H   41.388535   85.767365    9.531759
H   66.975227    8.680717   48.162533
H   20.046900   58.864151   92.395699
H    4.459459   89.656990   85.954185
H    8.621786    1.602601   29.178238
H   82.148003   94.082726   11.102440
H   53.357384    7.266959   14.506928
H   47.638809   51.198982   44.909634
H   75.621246   75.320221   18.904373
H   85.281586   15.064632   22.516033
H   30.332798   56.963516   21.401707
H   10.843338   92.663780   91.864922
H   67.139244   26.905510   18.091627
H    8.912324   92.426094    7.999294
H   56.712399   83.926605    0.573084
H   16.359634   20.364136    1.495136
H    6.255857   61.600498   82.360771
H   42.911213   39.562416   44.063995
H   22.991827   65.909271    9.630935
H   87.215523   71.862854    3.513609
H   77.580322   66.924271   11.222568
H   56.209480   12.092153   73.474060
H    4.304558    3.489462   99.930573
H   41.327301   41.454933   73.728767
H   85.831238   64.912239   92.089500
H   68.382530    2.064031   51.417969
H   91.639931   88.658737   19.063011
H    2.068595   78.723755   44.027813
H   93.758080   47.913101    6.321651
H   57.779911   20.570925   43.879791
H   33.448757   88.599976   93.702286
H   73.593826   74.136688   96.262833
H   73.160225   14.841163   54.565220
H   97.734390   45.616604   82.173203
H   86.442978    9.265828   77.236725
H   85.425171   31.988884   20.980667
H    4.645761   80.499161   83.607391
H   49.004139   10.391940   59.015205
H   65.241821   66.112694   86.275803
H   46.385788   93.019218   41.297863
H   40.932339    5.252948   92.290138
H   76.645660   40.975315   53.207752
H   28.919062   58.625206   17.393381
H   47.664871   81.621826   43.229614
H   35.926273   88.522972   89.281555
H   73.817543   28.263683   13.609915
H   77.871544   40.646049   80.195885
H   79.135414   18.232615   93.873657
H   86.483139    0.230017   67.694374
H   61.718193   50.907139   48.773708
H   41.677788   47.908913   78.122490
H   33.679672   11.064863   14.273849
H   53.410839   24.871941   38.854523
H   41.395832   78.207512   33.529091
H   94.308525   17.053303    6.430001
H   34.118900   15.449625   57.870247
H    6.159667   55.532867   31.575266
H   75.888268   37.697491   15.036155
H   14.463831   42.130859   97.355705
H   36.601780   85.499199   83.901123
H   78.228500   34.803577    6.548578
H    7.935680   79.573410   13.659597
H    4.081146   56.206116   23.351265
H   80.133690   61.100304   42.710045
H   21.681185   11.889699    6.275255
H   99.124321   73.930443   24.864666
H   73.265274   57.992863   69.468246
