100
TIME:    4.286, STEP:  4286
H   27.477215   28.973206   95.222061
H   82.106880   37.116089   48.352356
H   53.427147   82.256279   73.033607
H   82.195999   56.067314    5.232063
H   56.781738   16.299303   49.493088
H   61.562283   96.564751    3.202595
H   28.341496   50.749737   25.623789
H   83.015144   59.394421   14.667093
H   48.269875   74.211929   30.298151
H   57.715172   77.923973   75.526001
H    1.581753   38.698902   26.900604
H   92.254936   38.525536   87.847237
H   70.568619    2.406677   99.143555
H   42.863029   91.865211   83.406601
H   32.635841   87.184814   44.748692
H   29.194252   36.859917   77.265564
H   79.452461   65.454910   63.559837
H   92.725060   86.272362   50.952877
H   12.024261   58.158180   89.165802
H   77.044487   14.798143    8.143381
H    9.939392   29.532513   40.913872
H   73.283340   49.773712   54.285782
H   28.519753   59.764458    9.722072
H   20.825691   88.085510   88.757187
H   76.292389   46.258865   68.192909
H   27.008314   99.948517   87.382423
H   92.492180   64.315384   85.009560
H   70.900848   56.495697    8.442615
H    4.365518   37.951138   54.570412
H   65.337479   84.760979   24.113056
H   84.736580    6.389895   70.284264
H   36.377758   34.093948    2.487575
H   72.258278   54.897972   83.913681
H   59.195343   80.936462   91.189445
H   74.232651   34.931480   85.715958
H   45.212055   21.127094    5.953610
H   90.882248   47.573715   46.185291
H   86.843880   80.516457   24.892879
H   64.161438   88.033684   28.966696
H   59.499321   10.941970   75.248596
H   42.333603    3.248594   43.322002
H   46.419876    4.215037    4.161697
H   48.158665   89.201813   11.056536
H    5.669324   84.599152   99.797485
H   84.876671   62.785393   22.875467
H   22.792400   44.665699    0.570869
H   75.219040   57.925255   66.608940
H   56.468311   39.514374   33.771294
H   90.315170   77.482758   73.505219
H   15.767833   95.969032   83.895851
H   43.217625   55.857979   98.607712
H   13.424288   66.031464   92.693359
H   97.776558   46.860413   53.946011
H   77.437401   37.275658   20.945499
H   99.536804   34.203037   36.801350
H   98.928970    8.025290   46.721252
H   67.964310   65.875969   63.621712
H    6.911359   72.127769    3.156896
H   28.304441   19.862858   82.444954
H   76.186371   57.225307   41.706551
H   30.065252   79.252586   80.225258
H   46.796104   88.048599    1.424916
H   65.038277   14.813945   39.566582
H   37.351326   65.110840   10.773350
H    2.440152   18.527924   94.705223
H   38.049263   29.202950   99.605576
H   43.695023   96.541565   73.990158
H   84.302330   62.658218   71.098183
H   70.517166   41.821701   91.421692
H   17.221094   63.717728   92.708038
H   85.932091    3.780079   10.733673
H   20.567135    9.281016   70.423637
H   27.536650    6.304485   51.857216
H   35.858761   78.153618   48.494164
H   68.815071   34.749523   26.306196
H   26.980982   82.265587    7.536653
H   56.096672   55.065174   66.849007
H   33.344402   70.470589   51.140656
H   67.040352   40.929394   65.506096
H   89.331573   75.529991   51.678459
H   94.744186   73.622299   36.152569
H   62.909958   72.218399   28.385210
H   88.971565   78.799377   38.120373
H   45.019684   78.921211   71.956375
H   43.637100   80.793251   32.272690
H   52.651691   66.488655   39.416153
H   53.406975   91.725800   27.916655
H   24.945383   62.146706   51.170372
H   44.630966   55.534386   93.136848
H   87.398605   32.938164   77.430389
H   99.423340    4.863978   23.974283
H   95.417023   17.830093   15.194529
H   60.194405   56.119537   50.447491
H   61.486904   73.211349   15.801996
H   82.487740   65.816826   14.574889
H   47.927628   26.481499   46.071556
H   22.399784   13.645202   90.696915
H   22.598410   52.730408   87.452309
H    4.538056   55.325558   86.039360
H    5.431861   68.645210   84.856277
