100
TIME:    9.130, STEP:  9130
H   99.897858   84.757210   90.787247
H   48.327530   99.604141   53.781590
H   36.707203   30.752163   16.168129
H   83.009048   56.494743   39.716293
H   13.386545    4.566974   18.154049
H   86.437744   91.316887   82.920654
H   74.465721   77.839775    4.431072
H    2.286301   78.462570   69.908241
H   29.195045    8.479775   25.385843
H   25.386564   47.478275   65.197151
H   51.004669   33.606262   60.300499
H    7.373001   81.330421   43.045296
H   61.559860    9.362041   17.793514
H    3.018968   76.934669   52.037960
H   91.498970   54.496223   11.839851
H   34.426453   13.185874   75.170959
H   89.926643   85.849358    4.528272
H   96.304947   50.573082   83.035233
H   87.469452   61.370098   44.364750
H   46.536182   11.928228   37.945427
H   22.489571   47.297455    9.440594
H   37.682339   56.204193   41.774429
H   63.843544   20.373980   71.130264
H   70.750000   46.049530   29.000631
H    3.043984   62.106888    3.965222
H    4.557308   56.951096   31.708025
H   74.789513   62.955814   81.120651
H   62.177780   82.597244   68.563805
H    9.693963   77.437126   25.591545
H   51.077415   64.871933    9.197666
H   75.379768   40.760448   87.042557
H   42.231007    0.261839   54.054237
H   13.461311    0.488657   20.299459
H   63.866379   37.012604   87.119576
H   53.735298   68.400887   80.529694
H   66.292770    0.532710   90.723457
H   55.484169   70.174568   27.873495
H   86.632164   91.868965   66.718727
H   59.693729   82.490685   59.547501
H    3.249868   57.464043   56.364876
H   11.280897   69.452789   57.443325
H   30.787323   77.406464   46.063038
H   89.859955   18.256611   60.941051
H   96.364906   65.896156   73.416451
H   64.694916   71.679588   37.391018
H   60.273895   37.051586   20.252958
H   13.071618   21.359018   13.108356
H   56.744869   89.406036   33.489811
H   31.909042   76.303200   80.275330
H   17.422606   69.700737   45.163525
H   42.874683   88.200615   49.673309
H   48.847332   16.542419   74.708321
H   98.247444   74.947571   72.617508
H   65.257690   58.243782   34.697090
H   13.850578   58.715240   77.995605
H    4.967163    2.929850   81.820038
H   75.053513   26.104408   24.326544
H   46.216980   14.671244   78.386864
H   10.342369   24.544039   10.574949
H   56.531849   29.550320    3.931664
H   35.628895   53.982723    2.550505
H   74.876366   42.961319   82.251976
H   93.896149   84.267967    7.398956
H   69.981689   91.497986   79.260941
H   94.707901   31.645679   45.806065
H   40.478462   88.394341   86.021217
H   55.051651   64.007202    7.858031
H   49.694260   39.692390    2.669403
H   11.938992   93.762772   87.614929
H   15.450545    7.221722   82.479034
H   32.107197   74.194435   52.634712
H   21.434179   48.448631   25.271473
H   11.698833   66.701714   27.656109
H   29.222591   71.581215   60.679909
H    2.272991   41.758671   93.544479
H   41.497398   92.720085   81.595779
H   95.981277   35.575863   52.666412
H   60.916538   53.738731   18.665100
H   99.331398   26.701031   19.547586
H   51.781334   11.664675   34.363487
H   89.550392   23.736399   25.671074
H   26.404224    3.683580   23.188478
H   95.366234   59.804111   99.437340
H   78.277916   93.432838   29.532963
H    7.776169   77.783432   62.702545
H   41.165325   44.414505   75.798065
H   76.926903   39.526787   58.896828
H    2.864329   74.483681    0.914112
H   45.158939   85.828789   53.519173
H   59.125050   33.643555   50.590965
H   97.659874   66.422226   26.271019
H   53.826443   82.142883    7.491965
H   70.704132    1.458904   25.041498
H   29.644613   67.079453   42.419415
H   98.737015   31.919918   25.882982
H   48.022171   35.197571   95.872345
H   37.905540   91.630882   12.113335
H   20.654299   38.212811   95.593590
H   73.780937   76.227745   80.304497
H    6.311753   44.342991   18.217731
