100
TIME:    6.160, STEP:  6160
H    0.747122   57.118767   93.506363
H   30.350212   38.665630   66.514565
H   85.648987   17.079014   51.035648
H   82.510544   78.857941    2.511475
H   39.996490   66.508591   98.683258
H   32.495495   94.534508   88.791771
H   30.125072   77.290871   72.173103
H   35.722443   21.520535   42.603466
H    2.203342   94.034409   12.336392
H    6.508684    4.832194   48.906651
H   27.266830   14.103321   46.386856
H   20.730263   32.459415   54.453331
H   50.984482   89.082634   12.933037
H   50.074226   86.089027   26.018688
H   55.425362   19.791260   54.667294
H   53.843872   72.952858   21.707260
H   28.756660   89.407173   34.157448
H   32.795734   95.093628   85.987831
H   41.210323   36.773323   87.895081
H   26.556374   74.996620   35.734032
H   98.733597   42.970249   90.050438
H   52.945541   52.261475   94.697403
H    3.497671   44.523338   56.105850
H   46.705448   10.519747   49.578732
H    9.267844   97.640182   82.032875
H   18.465567   44.555038   11.159019
H   30.894855   86.413284   22.190397
H   12.779206   43.967674   70.391708
H   45.114372    7.975617   65.985626
H   37.194202   38.379936   73.091019
H   58.491982   74.434105   22.019341
H   54.703373   82.317047   29.001976
H    4.258635   17.787401   52.738403
H   38.376991    9.195477   12.240522
H   27.650776   93.270363   99.828583
H    8.116104   67.906349    0.059118
H   70.622444   78.942505   93.849342
H    9.389427   46.223675   57.134541
H   85.056763   47.200066   47.362312
H   82.990021   35.504597   22.690031
H   14.259399   67.545296   87.472633
H   81.082672   65.759583   94.438896
H   64.300262    0.439796   46.416977
H   86.006912   16.038229   83.027794
H   22.321728   88.850204   83.237900
H   98.611229   80.409409    8.186880
H   89.859665   59.839859   84.595177
H   56.568394   58.815979   49.723804
H   45.091614   22.278931   98.748062
H   55.072338   24.490690   52.825340
H   43.078617   74.935150   18.363091
H    4.497461   92.137390   69.670448
H   36.649403   57.726501   45.106060
H   34.040108    6.694425    3.640894
H   50.326805   98.437393   52.743046
H    1.268032    6.054001   82.925858
H   86.769188   11.802602   41.854774
H   67.369293   95.151222   54.888290
H   76.102386   99.043602   38.579002
H   52.521393    1.265234   88.405540
H   48.278431   92.103653   34.113758
H   80.287483   70.605667   16.632637
H   92.262718   86.935463   11.060760
H   66.037094   75.319244   59.898716
H   76.824799   68.856186   69.222954
H   22.927803   36.041130   10.410935
H   93.339767   61.327099   64.467056
H   54.852455   69.834206   60.686222
H   63.917629    7.168007   73.889038
H   55.183701   57.973625   88.761932
H   26.425285   76.274551   88.255135
H   66.045914   47.086639    7.627757
H    5.347295   13.608337    3.803371
H   94.605278   59.551525   37.146690
H   59.167873   37.423153   68.367813
H   71.286537    2.370464   81.439209
H   26.242680   92.638039   99.990578
H   21.388332   47.933571   54.634727
H   56.905811   35.424862   86.409019
H   97.433334   73.455177   90.231743
H   31.413996   93.009689   48.157505
H    3.538048   84.419250   71.656975
H    7.507744   10.135592   16.590271
H   73.946983   39.283958    0.796989
H   52.388542   63.575058   50.609436
H    9.516178   35.320763   69.552277
H   78.567192   55.470604   17.276068
H   55.098747   12.143888   31.708176
H   83.520126   51.193016   77.809944
H   21.711668   55.838497   44.421692
H   76.115227    6.054585   63.549725
H   34.076519   58.770096   50.896996
H   80.321411   12.349042   95.366837
H   42.607410   86.893257   42.158295
H   50.089638   97.953598   57.636143
H    2.712325   52.479645   49.276993
H   73.650597   21.189928   82.921936
H   26.387102   91.255661   55.217964
H   15.264678   63.403637   29.072571
H   21.832865   20.559689    4.327576
