100
TIME:    8.475, STEP:  8475
H   44.192131   44.823112   91.386917
H   66.417587   64.113647   12.480472
H   25.448389   83.629669   23.856403
H   82.899109   83.479912   75.619942
H   19.255819   52.065876   35.912338
H   96.592163   92.026497   18.053303
H    8.796039   33.610649   53.209202
H   53.768005   21.797434   30.047356
H   45.296196   71.455948   66.617462
H   43.277657   38.073444   39.551247
H   11.931168    7.252661   23.394953
H   32.374260   48.498470   89.669670
H    3.326979   49.005463   82.884735
H   35.449409   78.953560    2.190369
H   83.543343   13.004044   43.337540
H   60.761978   70.474449   29.542152
H   42.598000   42.525646   44.901039
H   82.295929   82.445564    5.741919
H   77.265060   33.890202    9.858714
H   64.181534   25.838083   93.350044
H   61.358208   12.503803   27.218538
H   74.886848   55.334671   97.553772
H   72.588737   25.698553   89.869965
H   31.607874   38.213837   77.647339
H   26.469288   14.049881   99.129738
H    7.646860   76.260483   93.346756
H   31.269869   90.181046   68.127792
H   17.446081   52.024052   46.911758
H   95.451210   18.010382   56.554008
H   25.961819   81.083023   57.126648
H   49.601147   82.025108   38.864052
H    0.874092   18.357716   14.690834
H   67.325577   48.410759   61.291885
H   36.191589   97.039612   14.713221
H   70.036339   17.993553   40.678669
H    9.355062   49.229439   92.782326
H   92.661919   94.161385   76.262230
H   13.705418    3.853683   20.498833
H   87.339317   96.762840   23.021725
H   64.942200   18.781965    4.829518
H   56.045135   46.978928   42.011806
H   85.986984   74.837875   12.624967
H   84.223053   14.326803   13.631989
H   38.186398   54.898064    9.375911
H   21.512653   97.515388   81.339653
H   68.727043   24.559940   17.591921
H    7.950676   85.737068    6.818181
H   56.704891   82.659744   92.962547
H   12.764565   30.550636    6.401846
H    3.674042   59.728359   90.960411
H   42.919659   51.437126   42.767105
H   17.013651   77.322281   17.705345
H   84.664909   71.149658   10.657297
H   80.429352   68.930603    5.795241
H   66.002785    1.312809   72.428665
H    4.151361    3.618846    4.117798
H   33.530006   45.004021   62.030479
H   94.990173   76.527946   95.257591
H   58.681194   96.866859   60.861244
H   99.757225   79.205139   22.561424
H   94.309708   84.444336   53.617481
H   98.123589   49.057968   11.887159
H   49.428951   28.964582   52.314270
H   25.002468   87.929947   97.041168
H   68.712189   83.960022   84.808533
H   80.716347   20.955833   47.292500
H    7.603061   41.364643   76.234909
H   94.939392    2.231078   71.356613
H   79.295441   40.826881   28.695381
H    2.147626   74.320633   83.868271
H   52.910763   18.761356   60.490395
H   75.371078   70.196678   77.259506
H   54.405487   99.103905   44.451878
H   43.639668   13.037533   99.598518
H   70.720505   40.794201   43.881779
H   26.010912   50.741577   25.669737
H   36.493973   92.267212   41.047798
H   30.148298   96.565193   82.487427
H   67.918663   28.624973   12.237247
H   83.903679   47.346336   90.792473
H   76.727440   16.960123   86.522110
H   77.252884   99.432129   77.985039
H   53.937790   48.850132   37.059467
H   33.216095   37.383644   89.357201
H   39.668640   18.759083   26.196922
H   56.242039   20.353939   30.313065
H   33.180943   87.150612   27.663994
H   92.330345   26.895874    7.705425
H   31.566330   22.297731   58.876228
H   17.034708   60.593742   27.178320
H   70.854607   31.056324   12.438621
H    5.363077   32.879959   95.011543
H   28.717213   81.809349   74.389343
H   66.340652   27.341297   98.255074
H   10.062595   90.590408   10.833324
H   93.921814   61.063354   29.704338
H   89.896965   54.041542   49.783821
H   21.918604    5.803648    8.744696
H    4.983680   73.399300   35.167530
H   65.624695   61.148754   81.316681
