100
TIME:    9.679, STEP:  9679
H   62.770660   34.410988   90.284622
H   33.165024   29.354839   88.396904
H   46.143978   70.250008    9.723043
H   83.101196   33.876640    9.622987
H    8.467108   48.571518    3.269184
H   77.926636   90.722115   37.289528
H   45.693134   14.909984   47.363583
H   59.135986   25.958584   19.499680
H   15.699577   55.695587   90.828773
H   10.389505   55.361103   86.692726
H   99.937958   55.696609    7.416992
H   86.420464    8.848749    3.967689
H   26.552063   76.131081   63.234436
H   75.835480   75.242500   93.815636
H   98.167122    5.456825   85.437035
H   12.350994   65.168198   29.599560
H   45.779457   22.161797   54.505905
H    8.046805   23.858589   64.002518
H   96.022446   84.399155   73.291382
H   31.746456    0.269449   75.323936
H   89.910645   92.642708   94.538223
H   90.315506   56.932999   95.022049
H   56.513603   15.911072   55.423248
H   19.738857   52.617157   88.227600
H   83.408310   18.567039    8.017635
H    1.967539   40.766586   80.045250
H   27.447628   40.132473   92.010849
H   15.856016    8.222707   86.708549
H   21.631847   27.246389   99.641281
H   72.129005   51.284317   52.841133
H   96.984245   89.990540   43.607422
H   76.895340   85.091019    3.230572
H   52.134010   60.320602   69.757713
H   87.062500   86.700157   63.990471
H   40.072289   26.833839   13.930491
H   14.016356   43.534916   88.997780
H    8.141385   50.069588   71.132706
H   63.938679   81.824852    5.462184
H   36.518551   70.528221    6.345707
H   51.539341    6.066701   99.557816
H   73.760498   88.292831   70.377525
H   84.520241   79.560959   74.086418
H   94.584625   21.550896    0.597755
H   61.314899   75.110939   27.094654
H   17.067144   50.010075   84.367844
H   53.191078   47.522930   22.483355
H   17.364155   51.218357   18.380205
H   56.778378   95.060562   67.458847
H   47.955330   30.835491   58.376579
H   28.945272   78.061058    6.776720
H   45.176060   35.374687   51.867523
H   75.528320   65.600677   38.670143
H    9.634476   78.130859   40.731407
H   52.545067   49.284500   58.923592
H   70.138435    6.825681   82.661636
H    5.650942    2.352355   63.130783
H    9.859343   10.262980   76.540855
H    5.337947   62.825005   64.246361
H   53.642422   47.743675   68.429359
H   20.305187   71.749069   88.316811
H   70.263153   28.453295   59.751392
H   55.391289   37.851303   57.412834
H   31.175526   46.817749   69.757980
H    7.679057   94.488602   64.358124
H   16.498295   87.797127   96.931358
H    6.753657   61.101830   18.482874
H   11.003990   82.989655   34.365002
H   11.771123   71.089668   28.914780
H   39.302551   54.315125   53.183834
H   26.600433   34.795200   81.314621
H   14.672318   36.838009   46.050331
H   76.224449   30.220116   65.511261
H   75.903366   39.547009   13.578434
H   17.138660   36.836384   28.059832
H   28.717325   42.567059   35.169788
H   54.477676   27.905491   44.655075
H   45.842720   88.058029   62.404762
H   86.709053   17.842964   48.985924
H   25.656981   25.088444   25.675417
H   24.857971   81.757973   87.066811
H    0.298153   29.416056   58.484077
H   67.599144    7.247502   77.258110
H   30.091135   68.985390   51.722729
H   16.049252   40.412552   79.390007
H   81.044922   43.439934    9.483745
H   28.528507   64.582191   13.922494
H   13.593447   99.609688   85.075188
H   11.692989   30.554228   95.225418
H   56.551762   55.260841   49.029060
H   10.584895   11.054771   70.215591
H   20.127890   96.068695   37.864891
H   94.446884   23.432623   17.950769
H    5.896132   17.932386   67.496513
H   80.361855    0.208551   83.032036
H   89.245789   82.743843   38.497841
H   93.367279   13.519367   67.515945
H   94.329155   23.136055   80.539734
H   19.594599   65.375687   84.569359
H   47.627708   78.598457   34.320026
H   40.410934   30.256680   65.332108
