100
TIME:    3.251, STEP:  3251
H   97.470856   23.887962   96.169632
H   10.837498   81.009338   83.072128
H   35.636505    7.794287   85.178307
H   82.022278   98.708000   61.966328
H   66.052139   33.339489   77.556976
H   77.609016   97.686043    0.702882
H   82.584999   80.861000   44.685371
H   64.364105   69.853928    9.697332
H   73.712151   73.722961   95.447624
H   86.000160   63.062904   34.995903
H   97.854935   97.053772   26.597033
H   31.759163   86.646637   61.519234
H   36.466385   65.017349    2.006477
H   94.110817   95.055367    4.641728
H   20.045193   79.635025   94.499214
H   70.808670   27.384857   63.180031
H   62.681068   96.999863   69.339706
H   70.615074   36.604637   86.837097
H   95.903175   14.735751   34.637356
H    4.933250   36.776981   37.675804
H   71.357773   32.570129   69.002853
H   74.056885   48.399734   42.425583
H   42.338493   68.182045   39.336212
H   16.988419   75.672333   65.627220
H   13.310071   28.338730   60.549171
H   31.752077   30.741022   84.454765
H   81.741821    7.335977   64.478859
H   58.231106    8.185379   74.233849
H   81.860413   44.047897    3.496410
H   25.650688   10.377755   41.833405
H   44.002949   13.579295   52.170174
H   71.027351   62.686897   98.302727
H   99.352875   30.623173   90.672707
H   15.463483   75.788033   34.790741
H   99.959198   13.169576   22.691879
H   55.216152   39.868107    9.464711
H   91.612312   85.476547   64.631401
H   29.621956   99.452080   51.854641
H    7.845649   10.584013   29.265856
H   56.984852    7.835132   93.816017
H   13.069139   67.731140   18.937849
H   39.439812   57.766594   55.535736
H   39.243603   82.995224   36.296894
H   71.760849   67.258606   98.599815
H   74.654778    3.624898   34.308163
H   36.145252   24.924641   96.369087
H   67.133102    1.637514   56.669418
H   56.413036   28.855368   69.731392
H   60.057106   63.200569   14.789796
H   94.062737   80.223564   56.284199
H   43.296589   55.780563   87.694855
H   63.125126   62.071632   60.641140
H   76.314079   40.859131   14.055859
H    1.410480   54.166107   75.274384
H   81.943588   43.493668   27.998632
H   97.633957    9.114996   81.955093
H    2.352039   95.740242   65.184593
H   83.980217   69.870743   29.818233
H   46.675621   76.131226   61.903332
H   44.485748   77.671066   71.144417
H   64.776283   27.386082   60.921124
H   83.530266   97.682236   48.258102
H   94.770485   85.440483   10.539658
H   66.281059   59.479134   38.876720
H   61.362171    1.191458   98.320168
H    1.631231   80.656044   38.408295
H   26.735016   60.755688   24.020956
H   55.796989    3.464800   21.619200
H   18.930832   16.190193   56.336689
H   96.251526   11.657988   94.887451
H   18.798302   74.201622   23.150799
H    5.907823   43.630844   94.644531
H   95.019745   57.496998   78.392815
H   58.647640   43.650009    9.991951
H   18.915777   33.272892   47.846104
H    2.510863   15.930864   77.177856
H   62.125645   44.771881   48.545094
H   84.718216   38.145611   93.979736
H   17.410849   43.969517   53.954659
H   40.090248   31.896923   40.844589
H   74.497757   62.914745   74.293549
H   85.250519   65.459061   14.930838
H   23.489538   61.522003   39.541508
H   73.812958   90.353851   66.487274
H   94.032074   45.533222   32.604347
H   76.471069   28.468262   67.542496
H   84.281654   66.978737   78.563492
H    8.287878   45.011368   61.933197
H   23.151070   13.161999    1.602335
H   78.906830   75.521439   40.432777
H   57.066925   48.975613    2.116940
H   18.833532   39.999084   95.471291
H   93.850113   25.062902   70.409264
H   61.450214   10.429405   46.016449
H    0.381105   58.525745   90.792076
H   62.440857   67.352852   99.530342
H    4.553580   54.248760   50.221748
H   18.800230   43.917999    4.017591
H   53.843254   50.864079   72.732124
H   41.142574   95.208778   84.560638
