100
TIME:    3.832, STEP:  3832
H   58.179596   70.607422   95.637711
H   94.675468   12.508966   19.721052
H   45.623329   49.593163   78.360847
H   82.119797   74.771538   30.117666
H   60.848175   79.909203   61.803238
H   68.601814   97.056602   58.242561
H   52.134228   20.092129   90.120323
H   18.698654   20.119015   56.353237
H   59.430061   17.862350   58.877407
H   70.122307   71.405205   57.748840
H   43.811722   20.431110   70.631111
H    9.582474   15.768742   20.162981
H   99.509537   29.866211   44.259171
H   65.342735   93.264565   48.857693
H   27.113098   27.737411   66.573341
H   47.448456   76.568291   14.951708
H   15.960639   35.427540   22.230429
H   83.026573    8.350446   66.695007
H    4.953213   39.111046   65.245178
H   89.278435   24.439478   77.233025
H   36.880402   74.730103   53.234413
H   29.757919   49.171021   92.948105
H   34.581306   63.456810   22.712429
H   63.007179   82.640503   22.475262
H   92.530426   82.262741   64.840004
H   29.085821   13.429362   29.997568
H   31.640844   83.185867   76.003822
H    9.209239   35.304504   93.436211
H   94.493546   96.761307   76.031776
H   47.928696   95.997368   88.021912
H   66.870583   65.677437    6.203300
H    7.712051   46.636169   44.516609
H   40.278416   88.115288   43.013779
H   40.013123   22.542702   10.315456
H   85.517532   69.250267   58.069084
H    5.739198   85.509308    7.459497
H   47.337372   64.199692   10.411868
H    5.609658   88.822517   92.855598
H   83.322876   97.926140   72.963066
H    2.262243   53.444832   39.528080
H   73.361832   87.669327   32.625957
H   87.222794   83.840668   82.832169
H   44.248096   86.479309   78.262566
H   34.659332   76.992767   55.406128
H   24.258383   80.699646   84.025085
H   28.649593   36.006336   98.727272
H   71.672165   33.235680   62.250160
H   56.444065   34.838318    5.680356
H   77.042099   15.083847   91.613678
H    6.245997   89.062325   15.649837
H   43.252262   99.688210   93.820816
H   91.361282    8.157948   22.497944
H   88.362099   44.227966   80.313362
H   87.953331   44.684608    0.912922
H   35.684158   94.414490   32.939274
H   98.360916    8.503286   62.176483
H   39.183575   78.975853   20.442663
H   40.717278   15.002386   14.851381
H   92.498970    0.679440   17.298023
H    6.147229   22.328077   54.619392
H    1.425714    0.367532   15.623575
H   62.909447   92.274368   21.967888
H   34.214527   45.794609   70.698723
H    6.175567   62.639633   23.100819
H   84.421471   54.789227   52.426746
H   65.939339   51.772713   72.761551
H   80.119766   80.843872   52.071575
H   15.663511   36.693985   49.394360
H   47.889519   74.443253   19.895641
H    8.023119   40.881256   93.664032
H    0.348219   34.670998   16.180412
H   58.000359   24.348694   37.182743
H   57.138077   28.759945   63.498863
H   45.855129    6.882441   75.469810
H   46.926907   34.101803   91.889198
H   16.246836   53.168839   38.084576
H   14.875360   94.414108   58.820042
H   12.014659    0.154898   26.066607
H   45.270233   42.262936   60.439667
H   11.596821    0.254224   90.791069
H   85.863144   68.925461    9.018834
H   28.844025   69.253433   66.348022
H   60.249737   71.220703   94.879059
H   13.786085   40.071846   13.423423
H   65.742722    9.189901   76.283035
H   63.101810   49.811241    7.888923
H   23.085348   24.735313    6.267893
H   17.638613   98.495247   55.891457
H   35.209579   80.812798   96.849983
H   27.538000   51.618141   61.199875
H   80.843811   80.347984   14.386636
H   61.825401   83.689995    6.543221
H   31.092072   42.496628   15.338968
H   17.604717   45.672272   85.190422
H   90.336586    6.481687    4.142955
H   10.429122   44.409309   69.521111
H   58.436127   87.591362   16.807211
H   20.932348   48.864868   94.719246
H   26.165611   53.368542   24.066544
H   77.230629   80.297249   28.590971
