100
TIME:    0.602, STEP:   602
H   76.611732   66.814857   98.594864
H   84.524483   37.384556   15.974120
H   90.107635   17.214329   16.271400
H   81.577652    7.847120    7.164958
H   89.778992   21.010475   49.382195
H   18.681274    0.558447   38.363621
H   21.420094    1.986570   37.529957
H   72.570282   40.682278   52.921112
H   38.829689   28.413651   62.194702
H   58.388863   25.029037   31.263788
H   44.258453   90.465439   81.761467
H   32.863888   53.865791   50.077751
H    4.969771   25.285721   65.294121
H   25.274220    3.221163    3.051600
H   87.824226   16.250891   21.834360
H   77.318817   59.082829   83.068832
H   75.666649   21.808212   28.165422
H   14.008662   65.425385   78.676071
H   54.638397    3.606319   95.079315
H   76.353798   92.910217   57.257683
H   28.553009   96.285797   40.903961
H   20.071644   44.894508   67.997322
H   77.706459   89.726189   15.125723
H   63.109207   43.901798   62.366272
H    8.053286   38.431385   41.004105
H   43.898655    9.672299   32.748116
H   10.167246   17.452221   11.912146
H   81.745720   84.538513   86.672928
H   24.261154    3.710408   28.714836
H   24.076483   75.940292   31.245392
H   39.782719   76.027077   61.774590
H    3.767961   35.879036   43.533913
H   12.761471   24.436804   52.029869
H    3.537761   18.552856   46.389519
H   65.808174   13.413707   61.384697
H   24.896873   31.776064   18.572935
H   37.538746   82.489113   55.900524
H   39.108337   47.935894   64.921547
H   23.656170   67.657066   84.427994
H    6.492126   55.826672   85.398430
H   94.102219   76.836250   56.524967
H   77.516838   38.876228   31.082998
H   16.426214   67.109955   44.955910
H   40.917191   22.860212   39.592537
H    4.436813    8.140170    7.621988
H   70.262932   74.521049   85.679039
H   42.436634   58.216724   32.767281
H   56.271564    1.581511    5.826265
H   82.626823   82.591476   20.459570
H   38.515652   39.912220   41.559715
H   43.498692   11.524206   59.764271
H   34.388237    7.877509   34.541939
H   21.366899   25.499329   67.908119
H   62.748638   97.380257   58.380939
H   92.834091   11.278982    5.514441
H   94.319473   11.899271   72.133301
H   34.415733   72.176460   13.242750
H   81.232605   20.035576   98.048416
H   37.755081   64.204559   65.268784
H   19.293396   74.060150   46.487267
H   97.674881   50.574211   67.457977
H   77.544983   22.342026   68.117920
H   15.065876   66.101662   92.258400
H   84.377815   45.069214   10.794943
H   56.218010   12.763021   51.624786
H   64.363533   12.345875   81.780800
H   39.269432   69.173309   96.126205
H   38.781624   51.966415   94.981682
H   86.905663    6.530434   22.475613
H   42.581123   78.422997    0.464849
H    2.915297   54.443653   54.927372
H   24.329695   31.546425    0.696702
H   67.740250   88.529488   46.313023
H   16.940460   11.283466   67.429955
H   91.196945   29.500273   47.033863
H   39.891018   46.155617   55.421764
H   21.612316   74.367790    1.686383
H   60.263382   11.357052   47.687183
H   90.407463   51.739109   24.400970
H   70.002304   76.169044   69.058350
H   22.662518   35.509624   15.968912
H   86.491768   48.159073   36.439804
H   55.885616   17.305300   87.237457
H   91.581512   63.675510    8.444069
H   23.017286   11.227654   89.395393
H   37.437313   31.166313   83.587883
H    7.360952   59.582619   52.248806
H   65.646179   57.096382   89.482277
H   68.175972   60.653648   23.275223
H   13.111282   84.514664   45.733379
H   48.658878    5.938515   46.174877
H   22.828859   40.781883   44.993660
H   23.909073   45.668228   65.487175
H    5.412746   49.749115   67.407158
H   46.184147   95.805481   29.919102
H   43.644333   71.958855   36.354988
H   14.818630    2.228086    2.567236
H    9.075496   21.363342   46.403763
H   80.034233   39.445278   94.625496
H   76.627701   63.242413   39.705063
