100
TIME:    2.251, STEP:  2251
H   65.096344   15.593041   97.085159
H   38.654625   26.789995   19.992300
H   18.447477   35.849487   96.912315
H   81.854431   39.909691   16.777805
H   75.009048   53.185093    4.671513
H   93.111946   98.769417    1.669392
H   34.995731   13.335211   66.483986
H   42.962135   83.341949    1.513943
H   98.294060   69.868896   58.395748
H   13.326788   48.704384   95.835197
H   90.872498   56.816349   22.922098
H   69.927841   36.521515   32.699852
H    0.076965   25.518929    1.398324
H   43.624977   98.137642   28.542156
H    7.880132   68.958862   42.569122
H   11.016472   14.848554   46.189224
H   43.090408   30.859230   78.301315
H   49.247505   85.234398   21.507435
H   80.323952   72.786835   81.953659
H   31.872643   58.009586   69.591194
H   30.699097   32.123287   96.148239
H   78.185913   47.072220   27.584808
H   55.689934   76.314980   67.946442
H    9.899269   63.678928   39.895515
H   49.074821    7.649750   53.170128
H   36.337551   60.533970   78.185326
H   67.973503   48.906666   44.634991
H   42.608917   61.508785   41.178043
H   60.116638   53.320168   50.765923
H   87.307152   35.127945   62.336575
H    4.650249   23.904909   31.290382
H    7.886725   90.320198   90.877739
H   28.914669    3.788839    0.584809
H   73.211189   67.432053   76.920258
H   24.818592   88.761688   61.797157
H   68.270187   61.313206   12.901753
H   95.699463   22.099897   85.835388
H   70.951668   17.754383   81.288017
H   50.058723   32.369812   26.173349
H   51.173916    1.451653   15.137777
H   81.409920   33.420925   95.377121
H   29.314148   12.882998    8.555529
H   30.630018   76.998520   64.064201
H   35.617088   50.498306    0.825211
H   61.396999   43.077091   48.735451
H   49.046558    5.851154   92.310249
H   59.316036   47.255096   47.064011
H   56.359631   18.559500    7.857004
H   30.828894   46.021030   54.682312
H   73.097160   65.010551   26.226864
H   43.372883   52.324165   77.151031
H   14.527254   54.863766   26.287807
H   55.574287   35.060791   72.136192
H   24.565693   70.482353   31.146040
H   61.559258   55.840427   19.506727
H   96.382736   10.166256   15.997452
H   38.955006   24.595604   70.076256
H   58.442719   64.308441   55.575394
H   67.807426   33.879635   38.672760
H   10.476749    0.806273   99.586800
H    1.695048   73.888863   38.889812
H   19.020164    6.991516   93.503067
H   26.916336   53.652153   79.130783
H   97.611084   54.039375   66.029167
H   21.667423   81.060760    5.192060
H   63.062752   30.369057   79.282036
H    6.966291   26.186258   75.740372
H   24.873970   46.274658   73.813416
H   69.093224   88.043831   19.053101
H   75.987854   61.363441   96.993164
H   50.553429   42.241936   35.149021
H   88.361938   76.818710   21.428980
H   60.222336    6.963917    4.028713
H   80.652672    6.931187   69.424934
H   70.699974   31.846605   72.038925
H   78.874336   51.841438   44.465527
H   71.331909   31.444895   30.859911
H   37.736401    3.532773   38.754688
H   69.454727   46.906834   42.792854
H   89.131996   86.360031   26.995430
H   54.932453   52.569286   14.525942
H   10.217730   58.928299   98.549782
H   60.223774   44.828888   44.296452
H    5.017883    4.782565   57.825867
H   42.724869    8.082029   29.543137
H   99.481323   91.737358   98.099388
H   17.493933   39.686890   30.879774
H   92.191818   25.073868   72.338173
H    2.396276   68.840126    9.783688
H   67.320724   16.662224    4.686665
H   16.142853   94.979523   80.998734
H   44.840313   64.800102   76.413063
H   29.711979   95.081223   93.058395
H   64.796455   49.773182   78.591362
H   17.672729   48.099319   67.812340
H   79.844940    6.842253   51.181931
H   83.928757   96.860954    7.732289
H   15.130040   35.403595   20.018818
H    1.481134   46.553471   56.493958
H   79.036026   20.884270   80.882111
