100
TIME:    2.873, STEP:  2873
H   23.032887   58.552574   96.515701
H   21.352592   60.515778   59.227955
H   29.139051   80.599396   89.613762
H   81.958832   14.282438   82.684631
H   69.437851    3.041126   87.806396
H   83.469124   98.095558   63.269619
H    2.397244   55.337410   15.125281
H   94.074158   37.152744   44.405071
H   83.004112   10.066196   19.241539
H   96.330330   57.635384   20.192789
H   33.015564   81.844025   63.006626
H   46.187370   67.699341   88.426125
H   60.509552   87.886765   39.576118
H   12.826913   96.220467   75.877159
H   15.446796   13.399482   12.669234
H   86.006882   60.446014   94.556984
H   93.077492   71.996353   34.928875
H   62.539604   54.986687   99.941589
H   90.014229   98.877502   14.723948
H   15.116341   44.802906   11.939783
H   93.788834   70.201813   79.263809
H   37.817657   47.897934   74.615799
H   47.385338   71.256294   50.150879
H   52.108688   71.138824   93.699211
H   26.828548   58.316986   57.759010
H   33.485516   42.002857   19.885416
H   14.336437   23.049349   56.977993
H   90.126640   90.541649   61.740223
H   73.641266    9.753232   21.363768
H   11.157351   19.733597   11.784019
H   29.125132   79.682663   82.076332
H   47.160103   73.132057   33.296043
H   72.728607   58.279808   56.619484
H   99.491676   10.429422   50.715698
H    9.355945   41.743439   99.675331
H   22.350677   10.173532   10.763913
H   55.356468   99.319321   34.846371
H   45.244102    6.370054   25.181347
H   23.801964   18.819021   65.897186
H   92.589050   43.222786   64.077126
H   38.902157   54.761364   10.032815
H   73.412285   40.800545   37.776611
H   35.987667   80.728470    8.993829
H   95.899185   60.924133   61.639793
H    7.444517   18.538197    1.960876
H   41.021946   17.714863   94.834846
H   64.179977   81.080902   53.038574
H   56.392849   24.963530   46.342873
H   49.008842   94.508232   29.868383
H   86.137749   74.473045   82.723053
H   43.325428   92.273575   83.709290
H   44.754612   97.145920   85.454704
H   68.475609   38.667358   36.009895
H   10.163151   60.334793   58.593842
H   12.039888   10.366179   24.784513
H   97.160995    9.512566   94.823105
H   78.386955    6.647567   29.233757
H   12.126901    5.567966   39.554642
H   16.864632   60.160122   90.921455
H   69.429321   48.617016   81.895638
H   40.932106   44.963520   90.394394
H   96.946220    1.200840   65.362350
H   69.109444   11.234505   36.460251
H   40.323227   57.422905   49.140560
H   46.357182   31.381954   63.119080
H   24.852119   99.447609   16.059013
H   57.062477   47.688686    5.770170
H   81.907921   81.846802    3.548614
H    0.090727   43.350868   80.043373
H   88.591858   92.646065   95.683411
H   30.802582   99.920341   27.685749
H   37.075249   56.175858   66.970520
H   19.666712   76.195274   88.082756
H   66.966698   67.571625   32.457619
H    0.691362   32.733601   19.190918
H   93.575844   91.704948    2.613754
H   27.804396   77.534805   41.860188
H   66.959091   62.863613   73.105988
H   99.284836   45.079823   49.735497
H   58.628029   52.485157   73.409714
H   67.103409   59.004162   51.700993
H   56.889412   62.990433   46.539284
H   99.573776   55.212006    3.539008
H   47.807644   58.007904    1.013384
H   12.437800   69.177780   69.247322
H   85.168945   14.583672   41.293133
H   59.035896   94.462410   60.539047
H    2.204268   75.275131   65.865334
H   15.305452   34.207588    4.694958
H   12.326374   91.071487   26.921112
H   41.597626   28.565929   94.134232
H   90.863983   11.572487   88.267281
H   69.619492   13.720335   41.177940
H   24.913944   87.501564   20.530678
H    6.917151   92.383331   82.105736
H   31.219635   82.279976   19.055008
H   34.556747   32.555981   71.960670
H   17.413069   40.699554   10.065874
H   71.850395   49.234669    4.393254
H   17.664652    4.908972   20.974043
