100
TIME:    8.141, STEP:  8141
H   66.779533   75.452690   91.692703
H   75.642136   46.013676   91.421158
H   19.707254   59.599976   27.776836
H   82.843048   97.240288   93.926338
H   22.248701   25.294300   44.968704
H    1.770824   92.388344   84.976723
H   26.300758   11.056376   27.089970
H   80.019745   92.902275   60.715157
H   53.506554    3.568686   87.640259
H   52.400276   33.277699   26.473255
H   42.999039   93.813568   55.566544
H   45.122993   31.756680   13.443920
H   24.625298   69.221130   16.077143
H   51.987343   79.983040   76.774239
H   79.486580   42.838577   59.398956
H   74.191086   99.687218   57.266876
H   69.456215   20.435146   14.495702
H   75.155823   98.698097   17.319244
H   72.061600   19.877552   92.262039
H   73.181839   32.930882   70.609749
H   81.178246   45.755497   36.283222
H   42.865940   54.891281   25.996902
H   77.048119   28.413679   99.425781
H   62.642601   34.218231    2.451857
H   38.414742   40.538605   96.663063
H    9.221905   86.106796   24.777744
H   60.072342    4.064241   61.501469
H   45.627480   36.434055   35.870331
H   88.188789   87.707413   72.342766
H   13.155609   89.349442   30.574287
H   36.454891   52.074371   65.289070
H   79.785057   27.584812   45.610909
H   43.798244   72.848167   31.202528
H   22.078663   27.648537   28.783205
H   78.348625   43.282066   20.356634
H   80.321075   23.067324   93.832191
H   60.625996    6.393450   49.944241
H   27.510281    9.966225   96.929924
H    1.436278    4.039862   55.388832
H   96.402496   50.050606   78.552063
H   78.872070   35.519592   34.142910
H   14.134913   73.528091   95.573357
H   81.348663   12.323267   89.506538
H   59.512432   49.289436   76.718658
H   50.483803   10.691601   52.757843
H   73.038628   18.190670   16.234995
H    5.339480   67.573372    3.610699
H   56.684505   79.219650   72.296501
H    3.002179   58.211540   19.725662
H   96.662354   54.644665   14.313342
H   42.942593   83.682274   39.245468
H    0.780685    8.314112   39.631042
H   77.738853   69.213013   30.055605
H   88.165741   74.378693   91.056839
H   92.595985   72.043900   69.589951
H    3.735365    3.970181   15.487946
H   12.356755   54.641380   30.264397
H   19.860167    8.070040    3.860728
H   32.337719   82.754829   86.501724
H   21.797249   53.533352   32.061180
H   73.241043   99.978271   79.659248
H    9.977943   52.166794   26.999538
H   26.752655   51.756012   75.217651
H    2.067152   86.110519    6.109221
H   55.454720   10.635696   53.704987
H    1.234525   37.560020   27.543812
H   34.401276   29.818428   60.109783
H   18.011391   83.129509   55.389481
H   62.650276   64.825996   49.644279
H   95.364220   57.544147   84.576675
H   63.518993   41.488167   64.496193
H    2.876354   81.286522   52.777401
H   76.182556   15.625196   53.016438
H   50.991276   34.176144   19.442915
H   54.631058   40.302395   18.557592
H   18.113985   29.334160   48.142830
H    6.159089   21.175980   35.123192
H   14.457709   18.403423   64.038330
H   51.902489   29.606037    8.509842
H    0.283609   65.540611   19.566658
H   70.188713   13.504739   66.559372
H   52.189812   97.266144    5.928472
H   32.810516   43.264439    5.250093
H   10.237611    8.801958   19.863056
H   55.931366   39.651920   58.574348
H   63.930012    8.085544    7.118943
H   10.873841   11.435343   11.737633
H   86.958702   53.623886   11.168480
H   24.633904   40.893959   61.607918
H   46.565357   74.334366   15.238686
H   57.185963   13.022481    5.385036
H   80.650459    7.760650   88.646095
H    7.307336   71.789757   48.560608
H   34.062195    7.077885   75.733925
H   15.838131   20.508148    3.158730
H   66.334808   74.252930   46.955772
H   16.408213   34.873848   68.992287
H   22.563303   89.276436   15.450331
H   20.894371   71.957008   63.144413
H   44.879452   69.720108   13.491303
