100
TIME:    4.056, STEP:  4056
H   43.031158   50.065430   95.432632
H   88.459114   24.652025   33.849258
H   49.473671   65.708885   75.732430
H   82.157394   65.543022   17.839468
H   58.841827   97.863792   55.729507
H   65.129158   96.813927   80.425621
H   40.395214   35.218349    7.637486
H    1.092694   39.497189   35.785610
H   53.923714   96.325424   44.776577
H   64.000725   74.621513   66.520569
H   22.975784   29.444294   49.054661
H    1.032456   26.996759    4.218960
H   85.245438   16.315788   21.997635
H   54.251427   92.574135   65.904617
H   29.838074    7.729303   55.805439
H   38.442108   56.976494   96.357361
H   97.947639   50.242725   42.622032
H   87.811729   97.457207   58.928265
H    8.441917   48.508751   77.047424
H   83.242302   19.682520   92.484001
H   23.587921   52.430386   47.155556
H   51.233017   49.468384   73.872421
H   31.590584   61.635033   16.302883
H   42.195168   85.327026    5.838532
H   84.518707   64.499557   66.494301
H   28.057867    6.755311    9.001984
H   12.325048   73.875320   80.447182
H   90.308502   45.760071    0.839674
H   99.364151   17.084148   65.442909
H   56.518051   90.453423    5.829301
H   75.685524   85.764839   88.481133
H   21.855360   40.447937   23.779793
H   56.057468   71.726128   63.193466
H   49.477478    2.014621    0.879167
H   79.949661   52.317650   71.709457
H   25.217348    3.105177    6.686396
H   68.821396   55.996567   28.062124
H   96.351173   84.724373    8.662899
H   73.868774   93.045280   51.255547
H   81.163231   32.473885   57.152836
H   58.052750   95.356339   37.903301
H   67.090958   93.892914   93.356094
H   46.177540   87.822571   94.443230
H   20.355829   80.745697   77.308472
H    4.828085   71.860779    3.193195
H   25.759701   40.278797   99.636452
H   73.422165   45.417320   64.401451
H   56.456028   37.145447   19.540184
H   83.590927   96.532440   82.679108
H   10.943995   92.470039   99.983498
H   43.235172   78.062721   96.182632
H    2.247339   87.372864    7.792137
H   93.007118   45.526794   67.304573
H   82.764854   41.029091   10.796840
H   17.849197   14.046099   34.844791
H   98.641190    8.267447   54.550995
H   53.383526   72.512474   41.746864
H   24.037590   93.848198    9.081423
H   10.165480   10.144381    0.101367
H   91.365051   39.546093   48.248299
H   15.556026   89.949608   98.158913
H   54.959251   90.189407   11.832078
H   49.422779   30.509369   55.338371
H   21.557306   63.858139   17.018543
H   93.311607   36.897869   73.286613
H   52.178596   40.636971   86.006180
H   62.148087   88.588989   62.886028
H    0.189941   49.504532   60.102856
H   59.054314   58.348038    5.846390
H   12.561327   52.148590   93.192352
H   93.235405   19.429569   13.493034
H   39.531364   16.914612   53.583866
H   42.533096   17.680599   57.754967
H   40.923000   92.707603   62.160240
H   57.725979   34.421383    8.870017
H   21.542978   67.525597   23.012531
H   35.213264   75.000046   62.781467
H   22.538586   85.508888   38.437943
H   56.011200   41.604977   62.939911
H    0.611186   88.055473   71.493217
H   90.244980   71.242844   22.406385
H   45.651886   70.716324   47.617554
H   74.421089   74.959961   16.213940
H   29.196852   59.239815   92.964371
H   54.835983   95.178780   54.568680
H   57.945805   58.040001   23.444321
H   38.045799    8.448692   16.949400
H   21.243715   80.561165   53.562111
H   39.858017   68.340630   95.017952
H    7.733256   42.401588   69.207581
H   90.010803   92.444176   19.117105
H   78.399353    0.533788   10.811764
H   45.450905   49.218063   32.661236
H   39.255840   59.260406    0.294407
H   86.464027   86.417717    9.289989
H   28.930588   35.563606   57.951286
H   40.655853    0.446329    3.924433
H   21.754370   50.772095   91.133797
H   15.494713   54.334118    5.303604
H   91.145180   74.548225    7.012301
