100
TIME:    2.821, STEP:  2821
H   26.549290   63.321251   96.563309
H   22.799065   57.696228   55.947803
H   28.245222   76.858246   90.223930
H   81.950104   16.424971   85.534729
H   69.903610   98.873108   89.216370
H   84.275276   98.151894   58.119686
H    5.122521   51.825966   11.058814
H   98.161255   32.654240   49.179699
H   84.282372   15.065868   22.514748
H   97.751411   56.888741   18.156382
H   37.852478   79.751678   68.015640
H   48.172203   65.092834   92.127602
H   63.817078   91.032822   44.744301
H   15.401582   96.380745   71.920189
H   14.814213   18.044237   15.168921
H   88.097641   64.994110   98.873390
H   97.259010   68.556717   30.195108
H   61.428368   57.515434    1.744518
H   89.204109   96.696289   11.984537
H   16.517189   45.907001    8.399378
H   96.874588   75.378326   80.675369
H   32.832367   47.828903   79.044083
H   48.079613   71.679207   51.638611
H   56.940048   70.515167   97.560966
H   28.688213   62.440979   57.375374
H   33.723949   43.552082   24.759424
H   18.820461   25.210924   55.946102
H   94.514458   88.114464   60.021198
H   72.510590    5.035436   23.821699
H    9.163493   21.020584    7.650302
H   27.078608   75.019516   86.190407
H   43.876778   74.569008   38.109947
H   69.066010   62.084435   51.934914
H   97.294594   15.194826   52.906433
H   10.648585   45.674225   96.508644
H   17.829361    6.088594   10.942639
H   50.369194    1.223736   30.748960
H   47.393181    7.321756   21.512005
H   25.997063   19.951880   70.936432
H   97.487061   48.091042   59.985668
H   42.456051   52.977276    8.807817
H   78.085747   38.466591   35.333557
H   35.539761   80.416641    5.237864
H   99.219803   60.052521   56.555717
H   11.955122   20.589680   97.511086
H   41.692814   16.723042   94.623787
H   63.773510   78.253021   52.539093
H   56.390072   24.428144   43.125404
H   47.488976   98.815117   31.942678
H   85.047539   73.681969   86.360260
H   43.329395   97.293777   83.161011
H   42.227451    1.971034   88.868156
H   67.397301   38.365845   39.030190
H   11.367222   61.183395   56.299164
H   16.180000    5.808645   24.342543
H   97.095932    9.567215   96.593307
H   75.090141    8.148093   24.288139
H   15.998872   10.478795   40.893997
H   12.763649   57.963039   94.913338
H   72.861023   44.619976   83.374641
H   37.651955   47.381580   94.448959
H   98.791801    1.684948   67.714951
H   65.580650   14.782019   40.026779
H   36.752274   57.140038   50.552517
H   44.293003   35.535275   58.276215
H   28.046577    2.032666   12.984468
H   61.234474   45.891109    3.259516
H   85.499901   78.872925    1.062713
H   97.499290   47.087257   83.304482
H   87.538147   90.030830   95.792908
H   32.453911    3.458488   28.309605
H   41.362694   57.901627   63.163429
H   23.057352   78.767662   89.415764
H   68.110863   70.862091   35.548134
H   98.184105   32.659412   15.248825
H   92.346779   88.372429    6.112642
H   23.083128   82.041641   40.940571
H   64.516037   66.263710   70.234467
H   96.791000   45.232563   49.155083
H   61.178200   55.317402   77.889572
H   66.086197   58.466198   48.593021
H   52.987587   62.650833   50.887428
H   96.284103   54.343964   98.586304
H   44.230343   53.558197    5.762684
H   14.969821   72.430161   74.288155
H   86.365479   12.673622   37.682110
H   55.562935   98.243233   58.059494
H    1.367369   79.438400   66.406471
H   14.226252   37.102913    5.120399
H   16.923943   93.210648   25.062241
H   39.469574   25.758083   93.036087
H   87.016510    7.662033   87.276253
H   66.284866   12.160862   37.155952
H   19.887791   84.347572   17.024590
H    7.816287   97.040924   80.910789
H   26.924652   84.333443   21.740860
H   38.684311   29.571789   74.951210
H   17.222242   40.256805   10.897913
H   74.327568   49.010517    8.748978
H   14.434921    6.243527   25.983191
