100
TIME:    6.752, STEP:  6752
H   60.711990    2.830210   92.964371
H   14.002373   70.746101    3.840018
H   95.829407   59.669777   44.084599
H   82.609909   54.468292   70.063965
H   34.694000   13.959913   82.631256
H   23.313244   93.893150   47.419697
H   99.098648   17.264400   18.468348
H   89.192406   72.735046   88.247475
H   87.650826   37.116196   75.073311
H   90.338356   13.333357   72.085854
H   72.200439   37.923786   89.362663
H   98.134109   62.133488   12.314495
H   13.207626   53.282696   54.108818
H   20.762348   84.264320   71.071083
H   62.615791   66.910912   26.199154
H   30.041195   21.174538   72.565918
H   81.151375   28.563259   88.049538
H   45.455769   66.286743   65.464394
H   50.428707   61.610115   19.084080
H   10.608253   62.422970   76.040184
H   63.603470   84.034393   73.980370
H    9.701157   53.047363   44.283096
H   95.593269   39.708641   39.168594
H   91.699730   17.601778    5.610735
H   88.094551   50.693344   86.404945
H   15.766897   27.053207   55.488617
H   79.846840   61.806435   33.938076
H   62.826569   71.600243   89.957626
H   57.986687   61.686199   38.000763
H   59.894642   23.728081   20.153118
H   81.789680   27.520798   75.182259
H   92.082764   65.957916   74.197609
H   45.959232   74.474022    6.070439
H   63.389931   54.942184   87.300812
H   12.917488   48.448891   35.848656
H   59.577389   14.274205   98.198250
H   27.403992   57.262817   40.496433
H   84.919746   35.388348   98.912361
H   60.070210   34.300652   89.993637
H   27.230843   80.083984   69.268784
H   73.800369   87.860970    1.419803
H   31.192291   68.081116   24.662029
H   69.394989    3.991195   89.178307
H   48.204845   25.974752   40.910362
H   70.968956   65.490341   33.897526
H   90.969139   91.700912   10.591970
H   94.484665   92.034195   90.277061
H   56.600010   64.913391   86.353439
H   62.394714   73.248695   75.135269
H   67.498779   33.503193   11.431685
H   43.037968   17.781511   24.602776
H   33.273418   37.204140   30.809608
H   48.930042   61.159119   10.722570
H   20.332222   97.035568   29.762661
H    3.190228   50.318413   57.779057
H    2.005367    5.431274   62.772781
H   24.299700   94.720100   98.158730
H   23.287710   39.244728   39.640244
H   22.793190   24.060162   93.132637
H   13.457232   46.769924   71.567650
H   85.621696   64.570450   87.957047
H   59.276253   65.095413   89.846924
H   32.453373   46.538979   70.465546
H    6.686970   78.544098   43.824131
H    0.320197   21.572845   24.353586
H   86.561523    6.611315   45.414780
H   45.843185   81.795746   93.048111
H   13.959087    3.690864   88.987244
H   93.420082   64.630676   36.759258
H   67.176476   87.747978   87.515350
H    7.625423   35.995499   81.155037
H   17.234129   27.439423   50.972313
H   66.748154   84.325165   88.626526
H   81.570366   22.085716    1.973229
H   87.712029   38.267757   13.245335
H   85.278969   40.312756   41.605324
H   80.008392   41.398296   10.489260
H   49.201565    9.223108   87.327187
H   85.296043   33.685970   93.012291
H   68.400620   41.206642   39.230278
H   42.999077   99.134201   83.540558
H   47.961082   88.258499   22.132465
H   44.954880   20.035315   72.970291
H   14.676877   89.942162   46.725742
H   23.562929   26.543442   93.221794
H   95.891281   57.068199   10.662650
H   18.105608   12.427297   45.504829
H   64.619743   64.773193   25.570114
H   95.805283   18.231802   72.968147
H   69.372025   31.480465   65.582306
H    0.342283   38.020370   76.051682
H   77.878525    3.294637   62.174950
H   18.269535   30.112835   41.147102
H   99.822029   22.808802   82.076019
H   39.855019   44.927071   71.240143
H   51.609116   29.101995   18.699600
H   26.660131   55.163086   48.875793
H   25.244402   20.548630   43.334785
H   87.063469   65.958977   79.486687
H   58.602520    5.368197   47.299358
