100
TIME:    6.889, STEP:  6889
H   51.447098   90.266670   92.838943
H   10.219173   78.169304   12.478358
H   98.185349   69.526268   42.475994
H   82.632904   48.824066   62.554852
H   33.466904   24.941069   78.916519
H   21.188297   93.744728   60.987789
H   91.917938   26.515705   29.181925
H   78.424477   84.587921   75.669212
H   84.283104   23.944244   66.450188
H   86.596443   15.300735   77.449959
H   59.457031   43.436314   76.165627
H   92.905884   69.000626    2.562986
H    4.465347   44.997181   40.495781
H   13.979269   83.842049   81.496178
H   64.279793   54.673393   19.611088
H   24.532326    9.191906   61.193848
H   70.134682   37.624332    0.521188
H   48.385540   59.620285   60.715607
H   52.562016   67.357208   26.301373
H    6.917557   59.514103   85.367790
H   55.473694   70.396271   70.261452
H   22.835480   53.229233   32.616272
H   93.764122   38.594429   35.248993
H   78.970955   19.240694   95.436127
H   83.194527   39.828209   87.416725
H   15.125042   23.012737   42.597488
H   68.033684   56.110992   36.656712
H   51.267403   77.994942   94.485550
H   60.965584   74.116035   31.524576
H   65.147949   20.337364   31.043861
H   87.180962   39.805542   64.343254
H    0.733050   62.172611   61.514824
H   55.609814   64.450294   18.412481
H   69.178398   42.386917   81.529068
H    9.507696   38.076057   44.184341
H   71.486702   25.004986   97.767616
H   40.543724   52.245728   51.291538
H   79.256706   32.880848    8.579894
H   54.286968   31.315603   76.717163
H   14.326992   67.259048   80.047165
H   64.437225   92.562401    4.647249
H   19.646713   68.618362   31.656166
H   70.574005    4.813005   99.074516
H   39.457340   28.274252   54.304947
H   59.085159   60.085186   45.620792
H   89.200615   94.313980   11.148554
H   95.554977   99.484573   91.591957
H   56.608089   66.324448   94.830231
H   66.399605   61.901905   69.670822
H   70.375244   35.588421    1.852525
H   43.028561    4.554720   26.046757
H   39.932560   24.491043   21.816475
H   51.772015   61.953491    2.765769
H   17.159958   94.800873   35.808060
H   92.282120   62.324936   58.944485
H    2.176000    5.287164   58.108978
H   32.984493   90.767052   11.188738
H   13.086741   26.306677   36.111557
H   33.597702   29.849674   82.615562
H    4.416801   57.300587   67.671043
H   94.263634   58.199699   77.274826
H   54.413857   63.820236   83.648727
H   41.754848   37.190468   61.071045
H   16.094555   79.290390   40.104168
H    5.758120   10.630886   37.111942
H   78.145355   99.800865   53.515289
H   34.851578   86.532715   99.662308
H    4.495340   11.526340   95.536636
H    0.247531   54.786728   28.166447
H   69.952599   94.638115   87.226868
H    3.274807   26.674164   79.511940
H    5.955401   22.882889   61.011192
H   57.815643   77.550003   85.114563
H   78.553841   13.415035   93.833099
H   94.317863   38.463215   23.631233
H   88.517082   49.093708   32.387466
H   92.450775   29.540195   12.918890
H   55.638073    0.264903   94.892540
H   91.866341   33.283558   94.540413
H   61.681900   33.743721   27.427574
H   45.680084    0.551655   91.728867
H   58.240891   89.146942   10.671028
H   53.620857   22.326452   86.016815
H   24.102211    1.665469   34.213329
H   16.892241   17.973625   79.941139
H   92.738876   62.100967   20.176453
H   27.255526    2.466084   52.037498
H   66.823082   53.809879   24.149651
H   98.648300   10.604073   71.847664
H   57.259350   25.843555   70.480240
H    5.948977   45.417442   78.944870
H   88.015137   13.598165   64.785194
H   27.051533   34.223713   51.741524
H   13.062268   31.120447   91.313736
H   37.486534   32.655060   74.388367
H   62.924744   23.692423   11.623251
H   15.786106   63.025284   40.996872
H   24.979959   27.327450   40.584793
H   80.537071   66.550575   68.012184
H   67.112099    1.852705   34.101276
