100
TIME:    0.961, STEP:   961
H   52.333656   33.892647   98.266190
H   74.538261   56.850292   38.619778
H   96.275757   43.041866   12.056152
H   81.637909   93.056053   87.487663
H   86.563461   49.785912   39.647957
H   13.114353    0.167736   73.917198
H    2.605248   26.228727   65.604225
H   44.353592   71.739944   19.957817
H   30.004784   93.897064   39.595604
H   48.577934   30.182377   45.322830
H   10.865143    4.910521   47.180786
H   19.160908   71.860710   24.523726
H   82.132767    3.565437   29.613592
H    7.498745    2.114284   30.372646
H   92.190117   84.184204    4.577135
H   62.884537   27.680737   53.269028
H   46.803566   45.549454   60.851921
H   21.680290   47.967300   66.230270
H   60.228600   18.667719   13.992609
H   66.635994   85.383575   81.749397
H    7.249448   60.547676   31.161388
H   54.494801   45.368347   37.428226
H   72.913292   86.806465    4.853966
H   29.754242   48.207432   35.702568
H   95.213737    9.959972   43.652992
H   42.252544   98.975616   99.098969
H   79.211136    2.528527   19.036161
H   51.454041    1.295457   98.538071
H   32.067169   36.281101   11.745655
H   37.841671   67.055130   59.785244
H   53.904758    8.220987   33.366173
H   26.435156   25.961288   10.299461
H   38.049267   98.171425   84.371422
H   18.706642   85.652870   31.265089
H   56.884666   86.275826   83.246689
H   56.110291   59.976330   17.337667
H   71.970757   69.342140   84.188423
H   24.271431   41.365147   90.256859
H    7.516541   59.993477   50.020157
H   72.677299   22.217382   13.643175
H   69.566681   89.156059   64.985275
H   45.251976   54.989487   47.949467
H   19.518492   69.262772   70.886299
H   17.992994   28.876322   74.694954
H   73.295143   93.975449   38.343735
H   65.677925   81.269829   87.086861
H   46.227345   77.581940   35.834908
H   56.290737    5.277830   28.039137
H   93.122490   52.858437    6.138484
H   46.045033   45.376431   16.451736
H   43.471302   76.865059   63.549503
H   51.835365   74.565964   10.973251
H   28.814112   27.580933   47.056984
H   54.435917   91.524376   74.223038
H   64.255859   42.751385    8.560841
H   94.768661   11.521980   59.912094
H   57.173691   61.817741   47.386589
H   54.500427   86.132881   88.801712
H   66.067833   79.372879   37.706829
H   95.603317    1.652518   36.276451
H   20.321295   33.880295   39.468285
H   64.803375   19.000504   51.873886
H   39.416977   41.620903   67.629738
H    9.028978   47.022087    1.047010
H   70.467537   84.090843   85.057457
H   42.309486   94.499001    3.007589
H   10.465582   81.586243   13.459240
H   13.983090   72.497604   12.143958
H    4.797113   80.735001   99.959145
H   49.853043   96.478172   99.709534
H   91.515495   30.015047   50.621738
H   94.728592   19.631981   26.981134
H   44.333160   70.770119   37.107403
H    9.039186   88.565689   46.093513
H    8.506267   30.011087   74.248100
H   48.379032   69.164940   31.266899
H   54.208157   43.253288    8.038641
H   77.129852   87.883476   67.513977
H    7.614626   50.687351   28.403950
H   52.396317   56.617363   38.130096
H   29.687931   39.223644   37.424847
H   13.427326   50.503616    6.419092
H   78.601509   23.296759   21.430241
H   16.277372   94.395607   75.653328
H    5.536283   88.772659   54.594261
H   29.173893   44.354282    8.518036
H   31.337744   33.480400   69.367264
H   71.425369   28.353989   85.751823
H   75.625923   40.664772   20.337696
H   81.371750   69.740753   58.568111
H   63.350620   25.323416   53.756298
H   49.391224   67.782478   51.832825
H   46.943184   56.424095   93.260155
H   40.112350   71.525581   91.614021
H   39.977680   63.650146   38.168480
H   73.296234   57.782036   17.812279
H   86.322922   22.830046   81.920944
H   10.393617   24.420013   40.660179
H   62.932213   40.992786   64.551796
H   98.922775   54.020359    5.127645
