100
TIME:    9.069, STEP:  9069
H    4.022962   90.351234   90.843094
H   50.012253   96.298920   49.935116
H   35.658672   26.363739   16.884136
H   82.998810   59.007866   43.060143
H   13.933149   99.677597   19.807823
H   87.383423   91.382973   76.879852
H   77.662971   73.721046   99.660774
H    7.080780   73.185013   75.508781
H   30.694542   14.344775   29.225569
H   27.052904   46.602406   62.808754
H   56.678741   31.151859   66.176552
H    9.701363   78.272789   47.387413
H   65.449615   13.054121   23.855492
H    6.039252   77.122688   47.395664
H   90.758064   59.945045   14.773224
H   36.879074   18.521202   80.234436
H   94.831886   81.814400   98.975197
H   94.999985   53.541359   85.149979
H   86.519119   58.810902   41.151211
H   48.179485   13.223650   33.792259
H   26.109398   53.370369   11.096346
H   31.834208   56.123215   46.969147
H   64.657982   20.869856   72.875488
H   76.417557   45.319794   33.531078
H    5.225617   66.944366    3.514925
H    4.845037   58.749374   37.448635
H   80.049385   65.491470   79.910629
H   67.324860   79.749969   66.547722
H    8.367476   71.902672   28.474888
H   48.738350   66.381668    4.348459
H   72.979271   35.290684   91.868683
H   38.379414    1.947088   59.701317
H    9.164454    4.951590   14.804097
H   61.289032   42.602905   89.689476
H   55.253410   73.019447   76.818649
H   60.990086   95.754959   90.915199
H   49.633713   72.408455   23.066916
H   89.153664   92.984978   62.414009
H   62.268749   83.819847   65.458923
H    8.995375   63.174881   51.565277
H   15.449656   67.359451   56.006191
H   35.928055   77.167252   42.949093
H   89.334991   17.890579   56.535175
H    0.259347   64.872292   67.451973
H   69.986435   74.085670   32.170704
H   61.060875   35.888103   20.005136
H   12.594707   18.041464   12.522543
H   56.741146   88.777756   29.715473
H   30.126122   81.355507   82.708405
H   16.142309   68.771812   49.428852
H   42.878872   94.089699   49.030136
H   45.882778   22.202763   78.712563
H   96.982506   74.593872   76.160080
H   66.670624   59.239258   32.005257
H   18.707653   53.369270   77.477158
H    4.891188    2.994016   83.896622
H   71.186096   27.864525   18.524954
H   50.759216   20.432112   79.958031
H    5.531339   21.966459   15.257967
H   60.557034   24.861485    5.666649
H   31.780573   56.819294    7.306298
H   77.041374   43.529099   85.011757
H   89.755081   88.430443   11.581909
H   65.793152   91.165695   80.916809
H   92.286926   36.517879   40.125477
H   44.225807   91.426842   82.414421
H   59.945724   61.898502    4.912849
H   53.907928   36.203804   99.753250
H    8.898695   98.145844   91.440460
H   14.211669    4.157923   82.608414
H   34.044628   78.344810   53.366310
H   26.457399   50.474022   20.800209
H   15.676199   69.719322   29.220295
H   30.565250   75.442116   64.304390
H   99.334671   41.668850   88.919403
H   40.055145   88.810783   85.700546
H   90.441238   40.855747   51.584373
H   58.051113   57.727150   15.296119
H   96.405937   26.880207   18.866716
H   54.772881   14.987698   39.618706
H   88.356194   23.105326   22.025185
H   21.826851    3.287589   28.291746
H   91.508125   58.783970   93.628304
H   74.081001   88.212990   35.104183
H   10.746307   81.599655   68.615829
H   42.569416   42.173637   71.562057
H   72.852852   43.961983   55.988121
H    1.883366   79.364723    1.546567
H   43.893070   89.225227   54.018074
H   64.518448   36.153419   48.410599
H   95.163506   63.128300   24.982811
H   49.313061   77.555038    6.329820
H   66.793900   99.628624   20.324274
H   23.749247   63.378651   38.306271
H   99.791595   37.384098   24.481451
H   42.983826   37.606445   99.023056
H   42.747490   88.130196   15.621584
H   20.772043   35.194736   96.818504
H   76.686852   75.964333   85.413582
H    2.522871   45.908108   24.094250
