100
TIME:    6.285, STEP:  6285
H   92.293777   45.655602   93.391922
H   26.898388   45.439579   74.395729
H   87.798569   26.071686   49.567944
H   82.531525   73.708099   95.660034
H   38.876877   76.527893   95.293900
H   30.556675   94.399086    1.170511
H   23.573807   85.730888   81.948265
H   25.897690   32.334248   31.125996
H   99.130577   82.016205    4.467864
H    3.094053    6.627128   53.800907
H   15.639633   19.132910   34.346718
H   15.959030   38.725056   45.555550
H   43.007950   81.523811    0.512383
H   43.884880   85.703743   35.531590
H   56.943611    8.625641   48.656284
H   48.818008   62.019936   11.330914
H   18.704933   97.675529   45.536690
H   35.468884   89.011093   81.654335
H   43.156773   42.017578   94.481155
H   23.188950   72.341591   44.244621
H   91.315918   30.525753   86.657265
H   64.929413   52.427414   84.052490
H    1.828565   43.506721   52.529572
H   35.090649   12.015108   40.294712
H    4.797257   87.727692   82.956032
H   17.895746   40.859550   99.404564
H   20.115952   81.217667   24.670904
H    2.232284   49.802254   74.523026
H   47.832344   19.316402   60.076660
H   41.987370   35.286217   83.028305
H   63.411987   85.643593   12.129738
H   62.595982   78.862839   17.430092
H   13.063671    8.642141   63.999390
H   43.658440   97.740067    6.974786
H   24.539993   83.807381    7.434572
H   18.981966   77.696770   99.666176
H   82.612038   74.364868    3.698819
H    4.223135   43.935810   65.955284
H   79.781036   44.476372   35.248741
H   71.215958   23.802395   32.524822
H    5.716830   71.834923   90.417580
H   70.548386   66.249771    0.820813
H   65.376007    1.189653   55.445412
H   78.024658   18.136312   95.250084
H   11.478928   83.917801   93.934311
H   96.997612   82.793594    8.694712
H   90.836227   66.637650   85.794899
H   56.575069   60.103439   57.458103
H   48.745140   11.926796   93.762253
H   57.695896   26.393747   44.084915
H   43.070034   62.867355   19.680592
H   10.572540   80.538666   61.465034
H   39.242443   58.451294   37.845737
H   31.145706    4.654754    9.156470
H   40.374260    9.391908   53.806393
H    1.423719    5.922513   78.670563
H   94.694221    8.195567   53.743279
H   58.061432   83.346642   51.668686
H   85.961472    4.325635   28.983131
H   44.273064   10.873433   84.850243
H   56.163410   86.290054   24.368160
H   75.850990   69.442184   10.976607
H    0.748561   78.405800    2.489136
H   74.620163   76.000168   56.504589
H   81.785812   58.872631   80.863503
H   15.249294   29.826988   17.802092
H   83.310928   65.648560   70.501907
H   46.217888   76.982948   66.661942
H   70.147041   98.186325   66.049835
H   57.715706   64.261162   88.498718
H   22.455616   67.769684   86.755959
H   55.739368   42.938156   16.779694
H   97.196930    7.425667    0.598132
H   91.852974   51.640797   29.719622
H   65.194328   37.601490   77.843521
H   74.241020   10.381889   73.027802
H   37.595303   81.818138    2.206924
H   27.261059   39.759628   61.538376
H   62.899654   35.057697   87.803291
H   91.303116   66.645943   79.462852
H   33.860168   94.302872   55.628590
H   12.918800   85.230011   61.200413
H   15.414651   12.225808   28.494987
H   82.547218   49.980370   89.379662
H   46.302193   55.755882   38.492050
H    6.638999   39.912704   78.232620
H   86.915657   46.382088   23.236532
H   57.109093    2.141275   30.412132
H   86.114120   44.233101   76.787605
H   10.659898   50.695332   48.889656
H   81.230736   12.804180   66.189499
H   43.325253   68.171417   53.278320
H   88.334183   16.099842    5.033275
H   54.687603   94.476875   50.586868
H   47.928612   86.757462   60.508610
H   13.036864   47.543427   42.820618
H   63.728569   28.362989   75.733139
H   26.145823   97.441193   52.708847
H    9.310174   63.942463   18.602180
H   29.596727   17.352005   92.286201
