200
TIME:    0.503, STEP:   503
H   17.552660   61.602154   19.836714
H   30.308414   36.717663    0.573948
H   12.625404   80.649620   58.302361
H   26.707861   80.047768   37.622311
H   12.417805   90.394943   49.877193
H   81.062744   45.676762   57.764896
H    7.169623   55.117523   54.741932
H    8.782310    0.243329   15.736954
H   98.109238   83.563393   41.303535
H    1.603140   71.214897   85.698692
H   21.360617    0.212461    1.272716
H   31.865341   49.042690   25.273628
H   17.629185   95.736290   50.512596
H   91.972870   54.316547   54.939053
H    6.924210   73.969177   42.331486
H   21.634438   15.130096   48.649540
H   96.579681   20.036089    2.662989
H   30.316988   95.810188   38.838127
H   73.775902   20.180426   46.355434
H   90.892975   76.092918   27.275539
H   61.241348   89.886986   13.791303
H   84.173973   58.867088   60.439705
H   87.129578   60.629234   42.825668
H   14.178863   90.456985   90.761398
H   14.677866   23.281473   36.025806
H   18.443384   74.008125   98.270279
H    3.988860   64.073936   59.656281
H    0.545976   80.978745    1.423299
H   22.145645   48.535713   36.798351
H   81.164742   27.809776   89.528290
H   13.018125   62.437016   16.516359
H   27.143486   69.670395    0.078205
H   20.768616   14.644708   76.391609
H   87.722221   63.864853   42.887260
H   35.367359   78.933640   32.218578
H   24.470295   43.925434   82.492294
H   93.813034   68.752525   87.929359
H   19.906031   51.558456    3.342451
H   43.336571   36.982964   50.277660
H   87.560539   38.606968   53.422943
H   80.582565   92.937996   10.253851
H   26.429918   37.591938   32.032757
H   71.966446   81.740265   60.094067
H   36.695358   76.007469   28.154449
H   37.763073   84.319267   53.854805
H   37.358746    6.993970   45.548187
H   84.930283   13.327191    1.945474
H   83.712982   65.546593   38.192886
H   97.251472   18.771679   61.355949
H   52.705765   18.988367   94.585884
H   71.951874   67.167282   17.445808
H   11.084517   40.224712   69.196129
H   59.269550   86.898178   11.367133
H   18.492353   87.733765   85.597839
H   66.066666   70.535896   82.267670
H    1.934181   65.870972   87.260254
H    4.679916   17.740700   46.833408
H   70.282028   64.693291    0.556607
H   22.631599   79.557999   13.487438
H   37.020493   94.512367   62.132408
H   49.567745   10.245205   34.552494
H   94.662926   17.047911   51.082092
H   78.692894   30.654701   76.012039
H   30.498278   65.527557    9.539524
H   75.576134   79.999832   28.684105
H   28.422947   26.778881   37.590683
H   76.351173   17.614431   91.268806
H   95.868629   92.047874   92.478500
H   25.877434    9.407315   58.650970
H   43.723038   46.213905   50.968548
H   58.349789   81.140938   80.316238
H   24.748941   16.908833   42.923836
H   85.840958   30.209896   90.689095
H   16.433514    3.183772   68.229103
H   82.347458    5.128937   55.246468
H   59.961395    9.791550   61.158878
H   94.315964   39.741062   68.425468
H   16.814035   10.759026   38.974266
H   13.530067   41.410660   29.113499
H   64.313194   89.200172   81.789032
H   54.530430   25.657082   97.229172
H   38.200867   63.860825   79.726768
H    9.973623   16.551189   82.584671
H   16.097652   70.459587    2.423336
H   29.542736    2.104957   50.328938
H   32.076824   76.572372   22.308002
H   47.642582    3.332143    2.374274
H   73.144371    8.755799   21.361975
H   73.735580   72.697380   78.117981
H   22.126842   97.835526   51.972088
H   30.218019   37.163185   79.584679
H   82.223465   90.842972    4.106443
H   59.753357   13.895945   88.239449
H   48.234482   84.984894   76.326172
H   31.789091   53.368622   78.893433
H   58.380623   33.589436   16.695934
H   82.873207    5.182527    9.655948
H   99.664688   32.525448   51.083675
H   31.058510   67.143456   53.813282
H   71.777313    2.200961   27.314615
H   21.600309   87.698059   81.324104
H    0.352110   80.635521   64.413879
H   28.631140   27.558437   34.178009
H   34.513435   68.425064    0.606392
H   24.990105   24.016483   33.614288
H   97.834991   13.896473   31.577675
H   78.116852   33.362411   55.035248
H   63.201637   44.372242    8.571822
H   79.480316   36.769848   11.849979
H   12.815230   24.393454    6.824454
H   50.654804   93.781342    0.980891
H   96.554329   69.958923   93.506912
H   52.526173   83.326591   88.214752
H   62.333275   13.727392   68.171906
H   55.073692   92.920212   17.551146
H    3.305314   98.103539   90.799004
H   21.761745   12.146013   87.246078
H   39.436771   39.941612   28.721397
H   28.850349   67.587746   70.541351
H   77.723221   51.923946   59.153690
H   43.299507   23.507122   78.901779
H    6.941174   21.249752   55.924343
H   38.577034   10.730346   31.831043
H    0.202400   57.854671    6.348026
H   69.046761    2.440310   84.114822
H   57.357708   69.548080   20.453358
H   88.849358   50.417923   60.897705
H   69.675949   89.632683   37.223804
H   95.704254   42.963684   78.896759
H   80.492683   22.902788   70.982193
H   59.225510   75.795135   13.462055
H   71.605148   88.659866   15.529172
H   91.578957   95.390381   99.331520
H   88.024590   19.746086   52.944218
H   17.418560   96.614670   44.331551
H   55.353279    1.289314   79.806992
H   69.328133   87.234703   68.431274
H   93.461647   56.009224   79.042847
H   53.187607   48.011604   71.487885
H   43.590408   96.476326   88.149704
H   63.638035   55.334492   23.405563
H   45.130890   49.001835   52.377846
H   46.550983   61.601746   90.513374
H   45.661858   17.007563   82.482613
H   52.664173   61.044685   57.668537
H   55.576496   66.506927   17.250172
H   50.951500   95.626045   45.398766
H   35.471069   63.628830   67.316063
H   72.216156   53.811611   95.329948
H   17.845572   91.546143   80.154900
H   66.950050   65.776489   49.358734
H   44.858402   99.832596   39.910503
H   88.393517   22.004581   94.232201
H   16.862238    7.179519   69.453369
H   24.041481   60.824646   65.511383
H   71.309509   44.181026   62.152294
H   62.064220   68.770866   83.869919
H   49.785236   32.440163   15.885687
H    0.344800    0.743361   92.851364
H   60.731079   46.212891   88.333923
H   56.539356   73.724609   76.423126
H   31.255886   21.693365   33.265560
H   76.540199   23.103235   37.122696
H   20.928478   27.905807   59.946529
H   56.435989   31.012407   12.408706
H   16.444944   56.071060   60.864143
H   70.371094   93.313118   55.009773
H   23.861961   42.898510   58.888111
H   97.646591   27.314926   36.235912
H   38.475018    8.475004   87.441711
H   74.340637    8.761498   35.954002
H   37.077370   55.678463   58.265743
H   42.754482   66.153458   83.023941
H   67.987396   68.247177   80.341133
H   59.214081   93.058105   86.865173
H    9.027328   49.081474   23.539066
H   32.715950   61.136890   97.909775
H    4.060903    9.451675   68.243149
H   68.875679   15.265635   66.058830
H   73.789810   57.276283   90.095078
H   76.616188   94.614090   35.604397
H   24.532433   30.427090   79.217415
H   53.526192   89.891045   11.277077
H   57.208279   25.707069   86.865776
H   88.924034   76.927254   77.313309
H    4.766239   38.442993   85.270485
H   40.509796    0.019582    5.092594
H   77.785927   78.364815   34.729145
H   99.002022   62.346222   69.549194
H   54.396137   56.842655   69.025833
H   60.384163   22.323025   77.423347
H   45.496899   92.076462   21.274485
H    9.942318   23.780890   63.830822
H   30.508774   74.027290   38.613533
H   75.869232   42.508102   20.955984
H   75.970230   11.028796   25.963144
H   11.209470   92.730751   12.343671
H   21.266113   92.179169   39.549572
H    8.406145   12.347790   66.254784
H    5.264683   26.082407   94.094902
