100
TIME:    1.632, STEP:  1632
H    6.957143   72.358627   97.651871
H   55.873207   93.229210   80.946342
H    7.807460   91.317085    4.177669
H   81.750534   65.411705   50.708591
H   80.553375    3.569511   21.454052
H    2.709042   99.440025   40.368198
H   67.435738   71.539009   18.077385
H   91.614311   29.790737   58.350075
H   13.510323   29.383347   97.357841
H   30.240763   39.816460   71.598839
H   48.450363   31.909382   82.546692
H   93.550262    5.494466   76.761665
H   39.450790   62.969109   62.920517
H   74.274620    0.045581   81.436150
H    0.350406   24.250229   72.324875
H   35.905701   68.990410   97.571060
H   92.857117   89.923752   21.944967
H   36.019516   15.336704   42.968063
H   70.680412   46.818878   49.341541
H   48.548126   71.155136   27.446756
H   67.431442   93.746155   12.949394
H   18.834782   46.253990   80.293495
H   63.954475   81.349266   85.656174
H   67.411034   56.255009   85.867737
H   71.214348   56.741127   48.603378
H   39.175831   78.979538   36.205223
H   21.349236   74.638138   32.351521
H   94.838882   32.615948   20.717192
H   46.657242   97.160095   80.027122
H   63.571392   50.448044   13.128036
H   80.299995   68.394531   80.270020
H   68.802673    7.423645   48.181648
H   85.313675   49.077110   44.820404
H   47.057457   24.159554    2.998256
H   40.205910   35.553566   24.106125
H   14.450719   12.685579   15.029283
H   36.329201   44.769386   37.060429
H   96.538689   29.083889   37.606869
H   77.352646   45.669609   85.707489
H    9.477633   59.401669   66.437637
H   23.712280   12.181212   80.793747
H   84.946320   85.102882   79.474258
H   25.298208   73.286560   19.354717
H   75.145210   40.122765   40.302311
H   15.091991   67.498306   95.764359
H   57.032467   94.044685   89.797829
H   53.312489   13.777158   41.568550
H   56.326572   12.186357   69.556847
H   12.736630   97.287865   79.373825
H   60.118053   55.589481   69.519493
H   43.420109   12.084349   70.624405
H   84.445457   12.301306   66.925400
H   42.733551   31.471619    8.085144
H   38.898769   80.579262    3.832909
H   10.835863    1.574342   14.254808
H   95.608231   10.816793   37.069672
H   99.714447   42.456459   11.204287
H    4.535143   22.765404   71.518875
H   18.989594    7.724083   86.194031
H   51.322636   53.229702   17.191612
H   62.648571    2.677470   87.152275
H   40.988281   12.754263   21.511177
H   84.930527   95.862709   21.596779
H   55.106735   50.672165   82.832161
H   97.098259   30.498634   47.546505
H    1.089067   61.141487   42.681927
H   56.630295    4.786348   45.855785
H   67.632347   10.872678   44.221638
H   38.241287   32.521210   57.877556
H   63.444847   30.227507   98.296600
H   70.208870   84.359230   42.574162
H   39.401218   97.362000   76.109764
H    0.581666   37.580502   19.901356
H   94.272636   46.103859    6.213982
H   40.856834   30.965841   25.114868
H   64.243736   12.168097   86.116600
H   15.129629   85.096420   19.910574
H    8.654658   44.008537    4.568156
H   39.779327   48.721531   35.887169
H   19.489304   20.071348   80.322975
H   42.818996   46.165447   77.529625
H   63.774929   54.885757   50.310867
H   21.059292   34.495850   85.339874
H   62.438313   51.813946   14.364784
H   72.864471   46.802345   89.548431
H   13.728893   69.002785   55.114326
H   76.152306   84.693222    1.363075
H   82.227142   74.632782   78.779305
H   89.550484    3.305484   14.847490
H   22.047436   42.131180   82.557259
H   90.810677   61.553341   67.926590
H   99.038429   18.247854   64.616020
H   89.996696   76.530869   45.171280
H    4.966149   12.225072   36.856140
H   28.376492    3.544214   53.587883
H   28.718124   31.284487   83.153900
H   33.061478   61.337597   43.331482
H   12.857291   30.133179   29.924461
H   30.967239   43.885204    8.346691
H   40.594101   36.783596   40.501167
