100
TIME:    6.061, STEP:  6061
H    7.441978   66.197594   93.597000
H   33.084206   33.300663   60.272228
H   83.946518    9.956817   52.198071
H   82.493927   82.936615    7.938176
H   40.883224   58.573303    1.367518
H   34.031040   94.641762   78.987846
H   35.313435   70.606377   64.431175
H   43.503647   12.956006   51.693623
H    4.636986    3.552886   18.568190
H    9.213072    3.410606   45.030399
H   36.475571   10.120005   55.922646
H   24.509079   27.497028   61.500374
H   57.301895   95.069221   22.770195
H   54.976189   86.394173   18.484470
H   54.222069   28.634285   59.427189
H   57.824356   81.611732   29.925411
H   36.717628   82.858635   25.145086
H   30.678602   99.910995   89.419960
H   39.668736   32.619873   82.678909
H   29.223373   77.099403   28.993647
H    4.608376   52.826290   92.737831
H   43.454315   52.130051    3.128147
H    4.819576   45.328499   58.938263
H   55.904369    9.335421   56.931675
H   12.808549    5.491409   81.301735
H   18.916864   47.481865   20.468594
H   39.432076   90.528214   20.225836
H   21.132484   39.346687   67.119705
H   42.961739   98.993652   70.665527
H   33.398014   40.830162   65.220688
H   54.595337   65.556190   29.851906
H   48.452427   85.052780   38.166908
H   97.285271   25.030447   43.819702
H   34.194084   18.268120   16.410967
H   30.111954    0.753999   93.801178
H   99.510361   60.152336    0.370461
H   61.126915   82.567993   86.048500
H   13.481131   48.035664   50.148678
H   89.235138   49.357231   56.956261
H   92.315079   44.773006   14.900896
H   21.025089   64.147911   85.140236
H   89.425827   65.371353   89.384361
H   63.447781   99.845963   39.266457
H   92.328857   14.376547   73.347740
H   30.909225   92.756668   74.766342
H   99.889214   78.521133    7.784678
H   89.086227   54.456009   83.644997
H   56.563107   57.796310   43.598240
H   42.198021   30.477821    2.697183
H   52.995274   22.983648   59.748558
H   43.085415   84.492844   17.319630
H   99.686485    1.323542   76.169136
H   34.595715   57.152466   50.856236
H   36.332474    8.309844   99.272484
H   58.209221   89.761902   51.900875
H    1.144727    6.158139   86.296051
H   80.492561   14.659373   32.439079
H   74.741119    4.500595   57.438217
H   68.293991   94.860695   46.178932
H   59.054070   93.656128   91.221336
H   42.033527   96.708023   41.832272
H   83.801186   71.527145   21.112381
H   85.541969   93.690956   17.849487
H   59.238777   74.779953   62.586864
H   72.895676   76.762772   60.003635
H   29.009182   40.962730    4.557094
H    1.282660   57.904789   59.687454
H   61.691032   64.172401   55.953449
H   58.983189   14.281517   80.097687
H   53.178352   52.993866   88.970398
H   29.569263   83.010406   89.442482
H   74.209305   50.372238    0.379401
H   11.802513   18.505013    6.341965
H   96.785103   65.817039   43.029045
H   54.395069   37.281910   60.863052
H   68.946587   96.025688   88.101044
H   17.254112    1.218418   98.239769
H   16.737133   54.407333   49.167038
H   52.158688   35.715656   85.304756
H    2.288344   78.848091   98.760704
H   29.476625   91.985489   42.240406
H   96.107605   83.777237   79.938194
H    1.245560    8.480142    7.161912
H   67.135597   30.812347    9.838933
H   57.208931   69.767143   60.206406
H   11.794949   31.683979   62.677444
H   71.955208   62.668709   12.555380
H   53.506554   20.065958   32.734642
H   81.465683   56.705269   78.619637
H   30.464579   59.911884   40.883064
H   72.063744    0.708944   61.459026
H   26.751520   51.324249   49.010986
H   73.975296    9.378407   87.711014
H   33.039898   80.887032   35.482864
H   51.801170    6.821458   55.361149
H   94.535309   56.389130   54.390442
H   81.508842   15.508847   88.615463
H   26.578196   86.356720   57.205185
H   19.980804   62.976887   37.365120
H   15.683876   23.100174   13.864724
