100
TIME:    1.338, STEP:  1338
H   26.838587   99.319992   97.921036
H   64.051338   77.290154   62.400875
H    2.754010   70.165199    7.629524
H   81.701187   77.524132   66.824455
H   83.186707   80.004128   29.425652
H    7.268265   99.758537   11.251978
H   82.845436   51.686695   95.086113
H   14.722137    4.356667   85.343315
H   20.737404   57.650162   15.864377
H   38.275093   35.595055   60.086784
H   75.797531   20.079578   10.866892
H    4.770870   90.757881   97.689247
H   58.151031   80.756432   92.142784
H   88.831963    0.951987   59.063557
H   96.774910   50.509853   86.456039
H   47.726532   94.704643   21.975082
H   16.494045   70.481064   95.177467
H   29.736755   29.633881   53.160446
H   66.100121   34.484390   33.853336
H   56.468307   77.399765    7.429857
H   84.877823   23.015076   20.929016
H   90.643913   45.865944    5.326255
H   67.879799   83.740349   94.067581
H   94.726799   52.728947    7.702175
H   81.729729   80.059090   46.434357
H   40.523899   87.740860   63.760994
H   46.701866   86.858231   26.517370
H   19.645241   18.893017   10.999213
H   40.264572   70.485840   93.925011
H   52.297863   57.724472   89.756096
H   68.734871   42.029816    3.534701
H   50.239262   15.546241   75.398720
H   64.605911   70.587883   18.334562
H   34.635490   51.102974   15.383671
H   47.513741   57.777626    6.204406
H   88.888397   89.590530   16.040464
H    8.130971   55.535988   13.894343
H    8.690275   34.464947   16.860973
H   90.568649   51.945641   13.885472
H   37.168900   86.924171   43.305378
H   43.803207    2.093295   73.867233
H   11.369377   71.909309   65.661606
H   22.765814   71.523529   98.118935
H   93.919472   35.194801   11.556930
H   40.593880   79.099319   70.606400
H   60.825451   88.437080   88.604530
H   50.208118   97.917252   39.056343
H   56.310871    9.159372   51.365780
H    4.143411   21.636398   91.100449
H   53.951931   51.114613   90.083702
H   43.442539   40.468590   67.524521
H   70.157280   39.582615   86.224533
H   36.634720   29.766907   25.160301
H   45.706402   85.374886   90.859451
H   34.241882   75.801712   11.759985
H   95.240372   11.125772   47.078125
H   81.074768   50.939644   83.242317
H   26.427631   50.530266   79.091385
H   95.802834   95.301727    8.763962
H   70.723480   30.631056   25.553673
H   44.103100   16.349358   10.075417
H   51.422913   15.491335   34.814659
H   64.989883   15.911797   41.766212
H   34.917114   49.072876   90.812904
H   85.429955   53.980968   20.166178
H   19.149666   75.757149   25.298353
H   80.218124   94.621552   31.661789
H   87.940849   94.058212   30.166739
H   23.587494   53.646179   76.316109
H   57.489571   15.440231   98.915680
H   79.544411    4.362928   46.100224
H   63.641773    7.119644   54.584549
H   19.751740   52.122143   27.440220
H    0.741775   64.709808   23.687279
H   26.682632   30.547514    2.826946
H   57.292629   93.325706    5.899789
H   88.436729   10.577784   14.709457
H   94.841995   63.233650   88.332504
H   25.686296   49.582859   32.607841
H   33.907578   36.083588    5.651327
H   37.065594   43.123882   59.957638
H   41.714611   52.965714   74.894608
H    2.457209   29.588625   57.337742
H   42.212803   26.655985   41.218483
H   87.179565   65.192902   18.048225
H   20.496151   58.203579   34.698158
H   56.516716    6.069435   87.344025
H   77.494324   98.171265   81.834328
H   83.449409   19.674513   17.252884
H   48.041397   54.227905   72.046364
H   78.778999   45.679333   61.717846
H   77.285408   96.136864   59.014900
H   71.132713   67.720200   22.426363
H   76.550972   94.392021   17.033531
H   33.460026   29.879723   46.831841
H    4.434910   42.894402   98.339294
H   56.398087   44.465435   60.239532
H   11.777827   27.629944   34.628616
H   44.972710   42.617886   32.973049
H   22.335739   44.335918   68.817329
