100
TIME:    9.445, STEP:  9445
H   78.595367   55.870033   90.498856
H   39.627731   16.674007   73.643364
H   42.121746   53.414833   12.470140
H   83.061920   43.517143   22.449541
H   10.563917   29.815384    9.613617
H   81.554321   90.975624   14.115520
H   57.956211   99.108620   29.064480
H   77.527924    5.715111   40.985504
H   21.451744   78.193665    5.557715
H   16.781694   52.001209   77.530678
H   21.704132   46.281052   29.957029
H   95.350426   97.119835   20.623497
H   41.473419   90.295479   86.489410
H   87.421936   75.963753   76.009270
H   95.324959   26.358864   96.691429
H   21.760303   85.634628   49.023499
H   64.596291    6.684968   33.203964
H    3.042648   35.245094   72.114822
H   92.376907   74.583694   60.959255
H   38.050274    5.238756   59.392113
H    3.796629   15.937939    0.890202
H   67.881699   56.622360   14.949249
H   59.637840   17.813307   62.118042
H   41.481258   49.817841    5.605868
H   91.777695   37.125008    6.290378
H    3.071399   47.664902    2.064973
H   47.626427   49.860455   87.369125
H   35.600136   97.300385   78.974724
H   16.543804    6.016543   10.702152
H   63.156197   57.075760   34.238533
H   87.775780   69.006378   62.120758
H   62.120380   91.557297   24.893089
H   35.650536   77.441422   48.677147
H   77.175629    8.144817   73.848778
H   45.895866   44.550941   99.693283
H   93.675507   25.205793   89.733315
H   85.697266   58.638924   52.694355
H   73.611305   86.105949   88.948875
H   46.396496   75.626976   29.021420
H   73.579376   27.973648   81.148026
H   89.753021   80.262650   64.864586
H    4.240654   78.641739   62.143246
H   92.570831   20.146774   83.694786
H   76.254433   71.183327    4.216311
H   37.372200   59.253819   64.348343
H   56.209984   43.059734   21.532694
H   15.534358   38.491108   16.133432
H   56.764095   92.650436   52.980244
H   41.115929   50.214687   67.711090
H   24.033972   74.497643   23.138138
H   43.872807   57.867409   51.428345
H   64.156097   87.313232   54.030678
H    4.780750   76.774048   54.322731
H   57.963387   53.103210   48.597542
H   88.769600   86.319534   80.672836
H    5.359495    2.598500   71.096695
H   95.024597   17.015282   54.285576
H   22.761644   84.923180   70.273460
H   35.186214   37.855019   86.392830
H   35.746059   53.763157   94.972328
H   55.501446   39.334858   77.993782
H   63.696404   40.029343   68.000648
H   15.281299   62.773216   85.798462
H   91.611023   93.213913   70.710144
H    7.210383    6.485976   75.140251
H   21.128094   72.734703    4.646600
H   29.778870   74.898773   23.067055
H   27.935150   57.707222   17.728226
H   27.639330   71.128876   67.860138
H   21.848022   23.042711   81.810928
H   22.103619   52.760906   48.856789
H   95.494743   37.989647   48.359936
H   91.160355   51.120968   19.578754
H   22.289188   51.645267   41.963326
H   17.445971   42.222500   17.427694
H   48.945099   12.908259   60.399445
H   24.590454    8.310886   58.253990
H   75.715309   33.142799   36.062294
H   14.436444   25.775776   23.063555
H   36.333183   94.504860    7.226069
H   95.717155   26.995218   44.498207
H   50.040565    5.728454   96.835472
H   15.290285   65.072060   29.437099
H   99.950508   20.388351    0.763300
H   92.438568   58.077431   32.166733
H   33.914692   55.986198   97.672531
H   97.965034   16.623726   73.917198
H    7.930065   49.278297   97.649826
H   51.695805   68.289803   50.942879
H   31.273710   20.682777   61.850235
H   10.551403   83.432495   32.923241
H   77.133255    5.834012   13.492929
H   90.896317   10.910887   49.400932
H   59.067055   86.111984   65.225670
H   93.291229    3.703297   33.120583
H   74.039856   22.759195   79.602280
H   12.902875    9.707875   93.997162
H   20.046274   53.797947   89.268211
H   58.774986   77.587990   53.920597
H   25.876984   36.260830   87.873032
