100
TIME:    3.320, STEP:  3320
H   92.804596   17.560295   96.106461
H    8.918009   84.750137   87.424637
H   36.822548   12.758243   84.368660
H   82.033859   95.865288   58.183941
H   65.434113   38.870144   75.686050
H   76.539314   97.611290    7.536312
H   78.968437   85.519890   50.081261
H   58.940842   75.823624    3.361900
H   72.015999   67.088913   91.104591
H   84.114494   64.053642   37.698059
H   91.436722   99.830154   19.950613
H   29.125443   90.105270   56.607658
H   32.077553   60.842773   95.148277
H   90.694298   94.842690    9.892849
H   20.884583   73.471603   91.182716
H   68.034393   21.349884   57.452492
H   57.132515    1.563858   75.621048
H   72.089073   33.249184   84.445007
H   96.978142   17.630579   38.272343
H    3.074432   35.311932   42.373650
H   67.263214   25.700768   67.129822
H   80.671982   48.491333   36.549591
H   41.417244   67.620872   37.362106
H   10.577576   76.499878   60.502605
H   10.842307   22.866508   61.058754
H   31.435431   28.685057   77.987068
H   75.792130    4.467667   65.847572
H   52.409336   11.406067   76.514336
H   83.360733   50.308182    0.234882
H   28.296253    8.669890   47.318787
H   46.718792   19.766619   46.711113
H   75.384071   60.780701   91.915047
H    4.213196   25.574989   96.888771
H   18.379082   69.464577   31.883816
H   98.244095    7.953593   26.893303
H   61.216000   45.288738    9.226926
H   98.230568   82.949692   70.068352
H   26.770294   98.189705   56.723576
H    4.932987    9.080797   22.579428
H   50.486095    1.375464   99.244545
H    8.353659   70.099014   20.563459
H   33.238487   60.863571   58.777481
H   39.837940   83.408997   41.280590
H   67.354645   68.414642    5.346313
H   68.669289    0.902632   40.212582
H   35.255062   26.240711   96.649147
H   67.672165    5.390111   57.332191
H   56.416721   29.565783   74.000725
H   62.073853   57.486191   12.037234
H   95.509361   81.273262   51.458431
H   43.291325   49.119141   88.422379
H   66.478470   55.668686   56.111225
H   77.744911   41.259216   10.048424
H   99.812706   53.040077   78.319244
H   76.449783   49.540749   28.585337
H   97.720291    9.042349   79.606171
H    6.726263   93.749290   71.747047
H   78.842278   63.354614   28.040749
H   52.117310   79.046585   56.605885
H   39.932671   82.974304   69.181892
H   69.128792   24.177437   55.541553
H   81.081322   97.039993   45.135857
H   99.454643   80.732109    5.808121
H   71.018913   59.854477   37.003162
H   64.101158   95.680733    4.745942
H   97.392464   77.225838   42.488113
H   21.198833   63.140934   27.352457
H   51.030708    7.411108   24.917799
H   22.369987   11.232292   52.008923
H   97.649719   15.128597   94.742157
H   16.607044   69.506935   22.322990
H    0.218538   41.340881   99.696136
H   90.520889   54.084164   76.624016
H   57.128567   39.283287    5.891710
H   22.242540   33.371334   53.076694
H    4.142168   20.353125   72.534760
H   68.390297   38.791130   49.765354
H   87.959961   33.633595   97.790024
H   20.719450   43.766842   54.724823
H   36.706367   28.139015   34.900162
H   75.847519   63.628582   78.417587
H   90.427414   65.909683    9.160921
H   27.855207   62.673828   46.113438
H   78.560287   96.258270   60.185196
H   90.672409   41.217037   25.915550
H   74.883362   31.002750   72.334045
H   88.890007   61.961876   81.853668
H    9.398378   39.487030   61.215675
H   24.583218    9.320257    1.037823
H   72.806580   72.682938   42.899094
H   59.890686   52.701145    3.574126
H   23.939096   45.188087   96.786308
H   98.273163   27.133345   75.745140
H   68.119209   14.614773   50.668495
H   99.188148   52.344952   92.377678
H   68.139969   64.628059   95.966423
H   99.076752   58.208553   46.253532
H   19.053442   44.505493    2.913540
H   50.556236   51.161510   66.952995
H   45.428226   93.437874   77.913956
