100
TIME:    7.051, STEP:  7051
H   40.491531   75.410408   92.690628
H    5.745531   86.947105   22.692966
H    0.970827   81.181389   40.573849
H   82.660095   42.149872   53.674465
H   32.015884   37.926083   74.523911
H   18.675587   93.569221   77.030807
H   83.426880   37.455204   41.850536
H   65.691597   98.603729   60.795380
H   80.300835    8.368501   56.252560
H   82.171700   17.626909   83.792915
H   44.388184   49.954777   60.560646
H   86.723602   77.120895   91.031578
H   94.130760   35.196651   24.397812
H    5.958185   83.342720   93.823662
H   66.247444   40.202751   11.820820
H   18.018188   95.022644   47.746582
H   57.107643   48.338886   15.268701
H   51.849941   51.737320   55.100632
H   55.084614   74.152527   34.835690
H    2.553375   56.074421   96.397514
H   45.860382   54.268692   65.863899
H   38.366577   53.444290   18.820465
H   91.601189   37.276894   30.613951
H   63.919403   21.178682   83.405273
H   77.400337   26.980385   88.613136
H   14.361217   18.237598   27.352087
H   54.063961   49.376236   39.871449
H   37.598900   85.556557   99.839737
H   64.488075   88.814095   23.867174
H   71.359894   16.327904   43.922539
H   93.556053   54.331802   51.526329
H   10.961666   57.697193   46.517662
H   67.021126   52.597420   33.006721
H   76.023155   27.540543   74.704086
H    5.475776   25.810371   54.041138
H   85.569252   37.693710   97.258400
H   56.081001   46.313110   64.056549
H   72.560265   29.915775   20.011307
H   47.448391   27.786314   61.017975
H   99.068413   52.092823   92.792404
H   53.365479   98.121758    8.463591
H    5.994051   69.253647   39.926014
H   71.968170    5.784781   10.775751
H   29.113575   30.993368   70.144279
H   45.033508   53.694027   59.483345
H   87.109367   97.403885   11.806704
H   96.820602    8.294976   93.146797
H   56.617977   67.992996    4.853764
H   71.135811   48.485538   63.209061
H   73.776611   38.054165   90.526039
H   43.017437   88.914703   27.754238
H   47.806873    9.458038   11.182399
H   55.132595   62.892822   93.357430
H   13.408813   92.158386   42.956863
H   79.383621   76.521339   60.322582
H    2.377771    5.116755   52.594116
H   43.254101   86.092644   26.596336
H    1.024065   11.007322   31.938940
H   46.373840   36.695667   70.179314
H   93.726112   69.752335   63.063377
H    4.482704   50.666512   64.643295
H   48.664162   62.312363   76.319473
H   52.753674   26.135696   49.962219
H   27.218830   80.172867   35.705379
H   12.188266   97.692230   52.198093
H   68.193390   91.747337   63.093994
H   21.853720   92.134094    7.483957
H   93.304817   20.791727    3.281173
H    8.321880   43.146439   18.005604
H   73.235313    2.785845   86.885742
H   98.130470   15.651845   77.569008
H   92.623924   17.492241   72.883842
H   47.253113   69.538498   80.961731
H   74.986855    3.162186   84.207428
H    2.125946   38.697399   35.913166
H   92.346092   59.477024   21.486921
H    7.163888   15.518208   15.791883
H   63.249126   89.672691    3.838860
H   99.635597   32.807713   96.347389
H   53.737137   24.918457   13.471148
H   48.850327    2.228006    1.411343
H   70.397224   90.197510   97.118034
H   63.868217   25.035681    1.444181
H   35.247318   15.528328   19.417629
H    9.004332    7.839725   64.237007
H   89.011215   68.051285   31.426178
H   38.075138   90.687325   59.762260
H   69.428490   40.845875   22.469978
H    2.010393    1.584352   70.522713
H   42.935787   19.178013   76.271957
H   12.578724   54.164345   82.366013
H    0.001495   25.781719   67.872627
H   37.436085   39.084751   64.269234
H   28.718758   40.948814    2.237134
H   34.685844   18.143631   78.111084
H   76.305267   17.295702    3.255480
H    2.927467   72.322189   31.680168
H   24.667261   35.343021   37.332977
H   72.819725   67.250130   54.442921
H   77.175301   97.695267   18.494785
