100
TIME:    0.459, STEP:   459
H   86.282387   79.928719   98.725784
H   88.502281   29.630962    6.953976
H   87.650696    6.926471   17.950455
H   81.553650   13.739084   15.003530
H   91.059830    9.548394   53.259621
H   20.898739    0.714085   24.201605
H   28.914742   92.331001   26.347170
H   83.809799   28.311390   66.051170
H   42.344902   42.162476   71.195702
H   62.296837   22.976315   25.663668
H   57.559967   84.711487   95.536476
H   38.322178   46.697899   60.256813
H   14.065785   33.937378   79.507713
H   32.354832    3.662065   92.169640
H   86.085167   29.023813   28.708227
H   83.068405   71.590523   94.938950
H   87.163643   12.351395   15.145915
H   10.953034   72.379440   83.633591
H   52.411659   97.607407   87.544846
H   80.224678   95.908295   47.501930
H   37.038834   10.521957   44.784660
H    6.359721   44.705765   80.172920
H   79.615715   90.889198   19.217472
H   76.395447   42.186741   72.986267
H   13.167364   49.772366   39.948013
H   44.554348   13.932940   46.151093
H   22.498312   23.396553    9.074446
H   93.812218   77.863754   81.946701
H   21.151794   90.736290   35.474426
H   18.593645   79.479507   19.877682
H   34.157505   63.203423   73.090477
H   94.739014   39.829559   56.772148
H    2.688509   34.899132   39.147301
H   97.495628   31.657990   52.414040
H   69.362663   24.223434   52.677399
H   12.463254   20.542547   19.064978
H   23.823418   87.725929   44.632641
H   45.018303   50.553211   54.830753
H   30.084908   70.709694   98.133179
H   19.961109   69.213951   74.148003
H    3.874996   71.928917   53.154858
H   90.368858   32.457855   24.364599
H   15.194650   66.252426   34.627380
H   50.048889   20.463823   25.610485
H   16.840977   13.782022   95.384949
H   72.089272   71.832817   85.118263
H   40.926685   50.502239   31.545355
H   56.263927    0.109157   96.978287
H   78.446098   94.435410   26.163881
H   35.516483   37.735668   51.560944
H   43.509602   25.330309   58.256504
H   27.438902   21.146839   43.930023
H   18.400461   24.670166   76.212837
H   66.059158   99.712822   52.070576
H    4.217949   98.742783    4.300972
H   94.140549   12.049557   77.001358
H   25.350586   76.302635   99.642052
H   91.880798   33.540016    1.731781
H   26.477379   58.162582   76.246460
H   28.729485   63.069290   50.554527
H   88.654465   57.223877   78.608032
H   82.620331   23.673050   74.587570
H    5.366038   75.853050    2.068742
H   74.558784   44.291328   14.677824
H   50.541519   24.184269   38.306908
H   73.148293   19.454853   73.325523
H   50.742424   64.228882   89.222336
H   48.659569   43.788254   88.145454
H   79.779228   16.805504   31.444752
H   39.684509   71.231102    0.765557
H    7.456462   64.174294   56.642429
H   36.120525   36.292290   90.227394
H   77.063965   95.603554   49.979885
H   20.088005   20.332937   75.928871
H   84.301804   29.296801   36.193653
H   36.509998   36.990097   65.043442
H    8.628829   86.761589   99.155823
H   53.544983   20.707497   39.789410
H   83.553780   52.158054   22.806469
H   77.015274   83.956627   81.377960
H   19.864094   34.030224    7.422265
H   75.762840   47.225174   48.398293
H   46.837925   14.918607   73.617371
H   81.745026   51.438816   21.505562
H   29.980616   20.172646    3.257628
H   40.728870   25.913677   73.657570
H   97.810280   69.979881   45.430035
H   63.344162   68.545372   90.968224
H   65.208443   68.615791   24.445324
H   25.754375   90.399536   40.620937
H   42.806736   98.216904   43.154980
H   12.248211   30.026873   42.269424
H   14.734280   41.383858   54.424400
H   91.591560   41.074547   57.765575
H   48.656361    8.614521   26.633545
H   31.833130   77.605888   43.741081
H   26.168913   94.021614   10.791414
H    8.550450   20.145782   48.691597
H   86.846458   38.828861    6.604182
H   67.746933   66.914955   53.477890
