100
TIME:    5.850, STEP:  5850
H   21.710703   85.547417   93.790176
H   38.911690   21.866240   46.967213
H   80.318024   94.776886   54.675556
H   82.458511   91.629547   19.504082
H   42.773132   41.660721    7.088312
H   37.303768   94.870354   58.092159
H   46.371166   56.358761   47.930698
H   60.087830   94.701767   71.067009
H    9.823769   23.839859   31.849863
H   14.976969    0.380730   36.768894
H   56.102280    1.630185   76.247368
H   32.562920   16.920628   76.519829
H   70.766281    7.829018   43.736259
H   65.423805   87.044533    2.426703
H   51.656044   47.481705   69.569672
H   66.308014    0.066505   47.440155
H   53.684944   68.901649    5.936925
H   26.166327   10.177498   96.734901
H   36.383129   23.767572   71.561615
H   34.907585   81.581093   14.627771
H   17.129417   73.831848   98.465508
H   23.225540   51.849945   21.096710
H    7.636931   47.044548   64.975021
H   75.509209    6.811251   72.602219
H   20.354668   22.225304   79.743446
H   19.878721   53.719849   40.309875
H   57.627670   99.298416   16.038740
H   38.935780   29.497917   60.145149
H   38.373802   79.849884   80.639862
H   25.307816   46.052361   48.446548
H   46.290367   46.636051   46.545555
H   35.129704   90.883484   57.700249
H   82.423576   40.468086   24.811155
H   25.278393   37.605064   25.299490
H   35.356979   16.704351   80.952148
H   81.168274   43.626106    1.034027
H   40.890091   90.295044   69.422462
H   22.202000   51.897579   35.259617
H   98.140564   53.954826   77.403969
H   12.189180   64.526848   98.299889
H   35.445084   56.908600   80.169167
H    7.207850   64.543915   78.611565
H   61.630314   98.580658   24.026039
H    5.802321   10.834982   52.717392
H   49.211117    1.082399   56.710796
H    2.612093   74.496628    6.927458
H   87.437790   42.981339   81.619865
H   56.551838   55.623077   30.542746
H   36.030869   47.952225   11.114421
H   48.569927   19.772093   74.506760
H   43.099903    4.863444   15.095525
H   89.432045   20.902828   90.019875
H   30.218662   55.929016   63.111660
H   41.218224   11.752809   89.961388
H   75.009117   71.271713   50.105946
H    0.881916    6.380091   93.478989
H   67.115105   20.747734   12.371212
H   90.452789   24.427496   62.872910
H   51.653053   85.945610   62.376762
H   72.978287   77.438980   97.222679
H   28.723484    6.520573   58.282841
H   91.289986   73.491104   30.660118
H   71.217949    8.089262   32.318390
H   44.748947   73.630554   68.314941
H   64.521484   93.614182   40.354389
H   41.971123   51.452202   92.080986
H   18.212082   50.610775   49.500626
H   76.266182   52.105320   45.866428
H   48.466351   29.442635   93.330261
H   48.904327   42.380440   89.414703
H   36.269554   97.366623   91.973091
H   91.608047   57.374878   84.931717
H   25.560688   28.941360   11.752510
H    1.430528   79.171959   55.566185
H   44.222729   36.980877   44.868057
H   63.959404   82.503349    2.299322
H   98.096672   19.506590   94.508247
H    6.823969   68.204460   37.513680
H   42.041080   36.335430   82.951225
H   12.635656   90.342079   16.938305
H   25.347483   89.802597   29.629366
H   80.270370   82.408905   97.588066
H   87.900169    4.951684   87.067917
H   52.619659   12.756073   29.110004
H   67.482689   82.964302   80.660553
H   16.651722   23.933586   48.025024
H   57.862999   78.010124    2.494021
H   50.113091   36.950603   34.922363
H   77.087021   68.453606   80.345345
H   49.120510   68.592697   33.341141
H   63.428764   89.314819   57.003094
H   11.139658   35.454819   44.991310
H   60.449738    3.047071   71.394058
H   12.647837   68.085884   21.255434
H   55.448982   25.722134   50.512424
H   77.107590   64.721466   65.288803
H   98.257225    3.400317    0.750180
H   26.985476   75.915543   61.440575
H   30.032410   62.067348   55.039139
H    2.578084   28.514744   34.191654
