100
TIME:    8.004, STEP:  8004
H   76.044426   88.016319   91.818130
H   79.425858   38.589428   82.783401
H   17.352358   49.743484   29.384918
H   82.820053    2.884785    1.435387
H   23.476320   14.313146   48.683441
H    3.895513   92.536766   71.409676
H   33.480839    1.805087   16.376392
H   90.787674   81.049400   73.293694
H   56.874275   16.740955   96.263382
H   56.142189   31.310579   21.108627
H   55.742447   88.301041   68.762909
H   50.352264   24.889538   23.195366
H   33.361305   77.513962   29.691748
H   58.770866   80.405312   66.349144
H   77.822578   55.076096   65.987335
H   79.699432   11.669949   68.638947
H   80.472908   11.373940    2.024053
H   72.227097    5.364440   22.068233
H   69.927246   14.129849   85.043701
H   76.873581   35.839748   61.282143
H   89.308022   59.394665   40.001095
H   29.731615   54.709412   37.663727
H   78.877266   29.527369    3.345611
H   75.371490   32.579315   12.626809
H   43.314766   51.403740   95.651283
H    9.867855   90.145554   37.670326
H   71.885849    9.759332   58.782833
H   57.186646   30.039358   31.341436
H   85.209892   75.277573   78.818993
H    7.902560   92.740158   19.683544
H   31.062654   39.789818   76.128075
H   71.134758   31.369579   58.293694
H   34.147663   82.871895   18.860487
H   16.289673   40.203804   34.554657
H   81.758156   53.654900   12.021072
H   68.411758   12.336499   94.262825
H   47.486446   11.411062   39.149136
H   33.172691   12.473463   87.261574
H    7.219363    7.024508   68.665306
H    9.306469   62.876587   67.773682
H   88.235214   30.819204   30.915251
H   25.680534   72.990845   88.578697
H   80.169647   11.501457   79.610329
H   68.259964   46.989159   63.323078
H   62.367065   16.096653   41.034210
H   74.807152   15.578124   15.678411
H    4.268514   60.122993    2.294955
H   56.676144   77.808594   63.819714
H   98.997566   69.557991   25.190632
H   93.785889   52.559437   23.892372
H   42.952000   96.908577   37.800964
H   94.122543   21.026686   48.624176
H   74.897926   68.418640   38.012001
H   91.339050   76.613388   85.011246
H    3.504105   60.038078   68.425568
H    3.564731    4.114292   20.151749
H    3.671705   58.594429   17.234596
H   30.061060   21.008383    7.389678
H   21.532669   76.966362   97.018799
H   30.837418   43.002689   35.957787
H   64.599106    6.349197   90.341469
H   14.840340   53.441971   33.198357
H   17.451702   61.104523   84.612152
H   92.659966   85.364227    9.828990
H   50.016403   21.577803   40.946945
H    9.650192   44.370720   19.443302
H   45.392883   25.081982   53.495586
H   27.474876   75.294487   48.840088
H   55.821808   74.669945   58.237091
H   92.581825   50.663418   84.867249
H   67.869347   50.810303   66.139290
H   14.157758   85.835350   42.735905
H   85.115067   22.401926   56.529446
H   54.006756   42.846302   27.582621
H   48.031494   40.100666    8.170322
H   14.874917   20.553730   57.360687
H   93.716515   33.034081   32.693039
H    8.021985   27.361019   56.471928
H   45.333237   30.008450    6.980936
H    7.001966   73.003532   31.369362
H   67.506660   12.087411   58.371063
H   41.910004   96.377701   17.389885
H   24.145014   40.973301   92.203201
H    0.812280   97.078491   32.375469
H   62.602005   48.221737   71.855003
H   67.082443    3.053298   97.605118
H    1.723851   21.396477    5.204908
H   84.755363   64.587219   12.588943
H   21.790363   48.522026   62.728401
H   58.678493   79.970230   10.341536
H   51.579365    5.625148    2.491716
H   70.513847   97.457077   86.035118
H   98.525452   67.679924   37.966187
H   20.821863   98.766319   66.496208
H   18.207138   32.780159    0.010773
H   55.019180   79.663025   54.031960
H   27.282232   27.011982   76.871208
H   22.827745   82.497093   18.200846
H   27.420769   71.365410   74.618996
H   36.370258   73.236252   26.689335
