100
TIME:    7.097, STEP:  7097
H   37.380692   71.191963   92.648514
H    4.475216   89.439568   25.593410
H    1.761565   84.490868   40.033733
H   82.667816   40.254730   51.152874
H   31.603697   41.613186   73.276627
H   17.962101   93.519386   81.586166
H   81.015839   40.561481   45.447796
H   62.076088    2.583347   56.571671
H   79.170067    3.945714   53.356853
H   80.915291   18.287401   85.594002
H   40.109375   51.805698   56.129875
H   84.968140   79.426651   87.757195
H   91.197502   32.412548   19.826485
H    3.680597   83.200935   97.324059
H   66.806160   36.093803    9.608768
H   16.168495   90.999329   43.928223
H   53.408607   51.381290   19.456263
H   52.833660   49.498947   53.506256
H   55.800907   76.082062   37.259014
H    1.314163   55.097721   99.529411
H   43.130676   49.689117   64.615211
H   42.776642   53.505356   14.903137
H   90.987022   36.902779   29.297705
H   59.645157   21.728975   79.989105
H   75.755074   23.332237   88.952858
H   14.144329   16.881695   23.023268
H   50.097149   47.463898   40.784275
H   33.717720   87.703682    1.360296
H   65.488289   92.987617   21.692850
H   73.123779   15.189352   47.579460
H   95.366264   58.456543   47.886955
H   13.866058   56.426395   42.259209
H   70.261116   49.231789   37.150764
H   77.966728   23.324905   72.766129
H    4.330926   22.327522   56.839981
H   89.568001   41.296585   97.113808
H   60.492821   44.628540   67.681183
H   70.658806   29.073841   23.257263
H   45.506573   26.784170   56.560181
H   94.735558   47.786289   96.411423
H   50.221649   99.700340    9.547243
H    2.117357   69.434036   42.274235
H   72.364044    6.060717   14.098303
H   26.176456   31.765463   74.642082
H   41.043533   51.879253   63.419624
H   86.515556   98.281265   11.993586
H   97.179977   10.796739   93.588295
H   56.620785   68.466782    7.699898
H   72.480659   44.675953   61.373932
H   74.742432   38.754314   87.309914
H   43.014278   84.473755   28.239079
H   50.042789    5.189436    8.162894
H   56.086834   63.159546   90.685982
H   12.343674   91.408051   44.986771
H   75.721085   80.552376   60.713894
H    2.435064    5.068368   51.028168
H   46.170162   84.765343   30.971306
H   97.598801    6.663075   30.753950
H   50.001633   38.639591   66.648033
H   90.690376   73.287827   61.755028
H    7.384464   48.527458   61.056854
H   47.031532   61.884201   74.238327
H   55.876797   22.996605   46.807861
H   30.377575   80.423447   34.456341
H   14.014094   94.018463   56.481815
H   65.367523   89.460533   65.813873
H   18.162931   93.724609    9.704947
H   90.127296   23.422640    5.480239
H   10.614563   39.841171   15.120454
H   74.167442    5.099541   86.788879
H   96.669807   12.521966   77.017311
H   88.838554   15.961560   76.255089
H   44.253876   67.263626   79.782532
H   73.974007    0.250900   81.474213
H    4.341683   38.765133   39.400928
H   93.433342   62.425373   18.391699
H   11.341720   11.536655   16.607672
H   65.410294   86.665031    6.379358
H    1.841447   32.672596   96.860481
H   51.481216   22.412483    9.508285
H   49.750519    2.704007    4.160595
H   73.849190   90.495819   93.269493
H   66.777626   25.804968    5.825040
H   38.411854   19.464771   15.216364
H    6.764555    4.962180   59.777809
H   87.952744   69.740768   34.620544
H   41.147373   87.342751   61.955711
H   70.168297   37.164738   21.993034
H    2.965114   99.023170   70.146492
H   38.868603   17.285328   77.916519
H   14.461231   56.648033   83.337448
H    3.405031   29.241230   68.749306
H   40.384785   40.465046   67.826485
H   33.164398   43.739586    5.338806
H   33.890587   14.023102   79.168152
H   80.104675   15.479323    0.879451
H   99.276237   74.962051   29.034515
H   24.578470   37.618946   36.409622
H   70.628380   67.448769   50.589817
H   80.032753   96.514664   14.063352
