100
TIME:    2.560, STEP:  2560
H   44.199615   87.256340   96.802261
H   30.059242   43.544258   39.483967
H   23.758886   58.080551   93.286507
H   81.906296   27.178835   99.840027
H   72.241364   77.952805   96.293350
H   88.321541   98.434654   32.270985
H   18.801220   34.201218   90.648186
H   18.675346   10.075075   73.143898
H   90.698250   40.159897   38.944157
H    4.883463   53.141167    7.935185
H   62.130066   69.249710   93.157440
H   58.134537   52.010178   10.705679
H   80.420280    6.823799   70.685112
H   28.324913   97.185219   52.058048
H   11.639130   41.357452   27.714964
H   98.591644   87.822052   20.539282
H   18.247253   51.293892    6.435177
H   55.850815   70.207802   10.793854
H   85.137932   85.748276   98.234436
H   23.548370   51.448711   90.629372
H   12.362595    1.360544   87.760315
H    7.810043   47.482422    1.270647
H   51.564339   73.801903   59.105881
H   81.189758   67.384888   16.945419
H   38.022942   83.142090   55.449814
H   34.920704   51.327999   49.222496
H   41.327225   36.060741   50.766804
H   16.536814   75.931862   51.393017
H   66.835464   81.355354   36.158958
H   99.155861   27.480270   86.901543
H   16.806692   51.615108    6.839966
H   27.397011   81.781395   62.272041
H   50.681141   81.180733   28.421972
H   86.266930   39.113968   63.902237
H   17.136734   65.403748   80.614311
H   95.136063   85.586113   11.839707
H   25.336651   10.782801   10.183244
H   58.179901   12.098782    3.094448
H   37.014771   25.637957   96.229568
H   22.070387   72.525246   39.449680
H   60.292004   44.022526    2.657596
H    1.542942   26.751938   23.072031
H   33.291615   78.851501   86.384850
H   15.885920   55.677696   31.037531
H   34.594776   30.886547   75.176979
H   45.060055   11.744862   93.564430
H   61.732456   64.059235   50.032082
H   56.376133   21.740923   26.976189
H   39.860413   20.430553   42.355034
H   79.575523   69.711372    4.615772
H   43.349308   22.492201   80.409073
H   29.543242   26.189941    6.001696
H   61.984283   36.852478   54.189743
H   17.410732   65.442055   44.781647
H   36.958923   82.928619   22.128248
H   96.769363    9.841513    5.478363
H   58.543331   15.679582   99.464638
H   35.433685   35.127518   47.616531
H   92.179085   46.935375   14.950258
H   90.085526   24.557913   90.798103
H   21.187464   59.518383   14.798665
H    8.054333    4.114798   79.523193
H   47.876431   32.580971   57.932297
H   18.829565   55.720261   57.639454
H   33.932415   56.381901   33.968758
H   44.080299   15.007698   97.552528
H   82.174690   36.868656   90.658524
H    3.528975   63.946350   88.585403
H   84.492302   65.841057   99.672737
H   82.249329   76.904366   96.342499
H   40.741585   21.217299   31.440880
H   62.882370   66.563660   44.053192
H   40.075287   91.679070   96.106438
H   73.853691   87.377701   51.060143
H   85.599266   32.287045   95.462875
H   86.177818   71.645744   23.674412
H   99.385956    4.662710   36.324802
H   52.253780   83.328911   55.820507
H   84.273865   45.999203   46.241852
H   73.978096   69.532318    0.375010
H   60.979397   55.766033   32.993397
H   33.403427   60.946304   72.711769
H   79.772476   49.987061   73.727264
H   26.275043   31.224092   29.602081
H   27.679073   88.754608   99.589256
H   92.371155    3.086632   19.557552
H   38.131340   17.220078   45.614044
H   97.166107    0.334799   69.122566
H    8.809494   51.635216    7.255790
H   40.000141    3.948318   15.732150
H   28.788391   11.664857   87.524246
H   67.705154   88.035454   82.302055
H   49.538273    4.340639   16.963715
H   94.661049   68.516960   99.426796
H   12.329494   20.420113   74.913078
H    5.367111   94.640266   35.221771
H   59.401505   14.593488   89.961418
H   16.264441   38.034546   15.074108
H   86.761070   47.885448   30.611153
H   98.225937   12.947577   51.121246
