100
TIME:    9.996, STEP:  9996
H   41.332916    5.341316   89.994400
H   24.411037   46.533573    8.384131
H   51.592899   93.056633    6.001549
H   83.154404   20.815607   92.247452
H    5.626558   73.980469   94.674019
H   73.012207   90.378685   68.683952
H   29.080120   36.316284   72.153397
H   34.220413   53.382160   90.393944
H    7.907108   25.217152   70.875999
H    1.730039   59.912754   99.104561
H   70.451385   68.451874   76.881004
H   74.323036   24.737476   81.403084
H    6.337824   56.943451   31.733227
H   60.139297   74.265419   17.939709
H    2.017710   77.140839   70.190697
H   99.604370   37.442307    3.285112
H   20.288277   43.127930   83.363663
H   14.825912    8.433578   53.015190
H    0.961032   97.696167   90.003342
H   23.206669   93.536346   96.906792
H   71.099411   61.085659   85.933136
H   20.706604   57.353821   68.026550
H   52.280823   13.327618   46.398941
H   90.285324   56.409393   64.685745
H   72.070297   93.427170   10.357552
H    0.472139   31.421509   50.214130
H    0.112311   26.954432   98.298996
H   89.108284   23.019199   97.185570
H   28.524624   56.007206   84.656143
H   84.284477   43.438644   78.042091
H    9.460332   18.416748   18.527390
H   96.910995   76.331146   73.884300
H   74.463051   37.127014   98.315575
H    0.456273   57.648918   50.635414
H   32.183083    2.832524   33.218105
H   41.572163   68.365417   88.001350
H   38.545525   38.460701   96.111160
H   50.837566   76.025246   27.831093
H   23.136890   63.620934   75.625923
H   21.682316   76.391113   24.498762
H   52.095413   99.171326   77.845909
H   57.804726   80.808914   90.261467
H   97.312714   23.453060   23.494274
H   41.074322   80.431679   58.087963
H   89.544342   37.462803   11.478477
H   49.101364   53.569225   23.771215
H   19.843136   68.459351   21.423910
H   56.797726   98.325562   87.073029
H   57.220291    4.588420   45.685028
H   35.598618   82.888420   84.612953
H   46.941578    4.903778   52.462479
H   90.934280   36.184372   17.860392
H   16.209803   79.968933   22.319866
H   45.204865   44.111290   72.912300
H   44.898781   34.606300   85.355865
H    6.045765    2.018902   52.339355
H   29.954994    1.115760    6.690219
H   81.733353   32.888588   56.081444
H   78.645058   61.139847   44.092251
H   99.386894   96.113220   79.300575
H   90.259460   13.711218   35.036556
H   44.140343   34.900711   43.068604
H   52.722149   25.227259   48.039688
H   29.447155   96.215424   55.750717
H   29.080635   62.479931   26.452623
H   87.280060   45.342766   37.226391
H   85.570351   93.950378   49.669384
H   89.873543   89.218880   44.069214
H   55.102730   31.537521   33.301197
H   33.038528   50.716305   80.642273
H    4.604733   15.267267   42.248421
H   50.120255   19.694725   88.748383
H   55.234711   23.867128    5.449795
H   10.161236   16.773857    9.225622
H   43.987587   43.033833   59.205021
H   61.972664   48.223217   23.325672
H   74.632759   60.622059   68.026085
H    1.602115   97.116173   66.493919
H   40.857368   24.157314   29.213709
H    9.312686   64.489754   59.756905
H    6.503482   32.695568   77.430748
H   91.387688    9.305551   50.737854
H   50.142952   74.286781   81.911652
H   37.857914   67.538651   50.436646
H   65.609940   23.610504   78.754242
H   21.231838   76.224937   35.935902
H   34.765156   76.561211    0.190928
H   16.790714    5.187860   91.941071
H   63.130131   37.610497   46.436409
H   82.558441   98.012070   81.548767
H   33.100822   13.185542   44.559349
H   17.901674   47.273941   23.989809
H   26.216251   27.444418   92.010612
H    9.209744   19.306278    7.154132
H   83.765427   54.349617   45.782417
H   19.550247    1.001855   51.142578
H   69.166893   41.327560   62.308945
H   18.982714   81.062195   78.203819
H   32.526482   79.967339    7.767117
H   60.100090   22.121994   34.793583
