100
TIME:    3.349, STEP:  3349
H   90.843414   14.900864   96.079910
H    8.111267   86.322357   89.253952
H   37.321030   14.844543   84.028374
H   82.038727   94.670525   56.594242
H   65.174362   41.194622   74.899719
H   76.089729   97.579872   10.408335
H   77.448433   87.477974   52.349098
H   56.661499   78.332626    0.699183
H   71.303123   64.300690   89.279259
H   83.321968   64.470039   38.833748
H   88.739212    0.997008   17.157190
H   28.018517   91.558899   54.543373
H   30.232864   59.088242   92.265800
H   89.258369   94.753304   12.099842
H   21.237370   70.881180   89.788826
H   66.868393   18.813446   55.045265
H   54.800514    3.481939   78.261032
H   72.708580   31.838921   83.439636
H   97.429939   18.847246   39.800091
H    2.293190   34.696186   44.348106
H   65.542313   22.813644   66.342606
H   83.452240   48.529831   34.079971
H   41.030052   67.385017   36.532410
H    7.883162   76.847687   58.348713
H    9.805131   20.566589   61.272926
H   31.302347   27.820955   75.268761
H   73.291534    3.262136   66.422829
H   49.962505   12.759689   77.472801
H   83.991302   52.939316   98.864021
H   29.408157    7.952092   49.624237
H   47.860233   22.367109   44.416725
H   77.215157   59.979546   89.230370
H    6.255964   23.453289   99.501320
H   19.604488   66.806892   30.662170
H   97.523254    5.761369   28.659119
H   63.737835   47.566975    9.126809
H    1.012106   81.887680   72.353447
H   25.571770   97.659142   58.769939
H    3.708828    8.449011   19.769190
H   47.754734   98.660614    1.526177
H    6.371767   71.094208   21.246687
H   30.632133   62.165199   60.139954
H   40.087734   83.582901   43.375187
H   65.502762   68.900513    8.181773
H   66.153648   99.758453   42.694149
H   34.880924   26.793842   96.766853
H   67.898727    6.967281   57.610748
H   56.418270   29.864363   75.795082
H   62.921471   55.084496   10.880361
H   96.117363   81.714439   49.430210
H   43.289112   46.319412   88.728149
H   67.887848   52.977592   54.207348
H   78.346275   41.427368    8.364140
H   99.140984   52.566818   79.598969
H   74.140793   52.082275   28.831923
H   97.756577    9.011816   78.618942
H    8.564704   92.912514   74.505180
H   76.682854   60.615952   27.293690
H   54.404396   80.271881   54.379421
H   38.019058   85.203201   68.357063
H   70.958107   22.828793   53.280575
H   80.052055   96.770065   43.823608
H    1.423433   78.753227    3.819502
H   73.010185   60.012230   36.215725
H   65.252113   93.364662    7.446660
H   95.610939   75.784157   44.202820
H   18.872032   64.143463   28.752653
H   49.027489    9.069716   26.304167
H   23.815430    9.148537   50.190006
H   98.237366   16.587236   94.681091
H   15.686100   67.533806   21.975071
H   97.827255   40.378433    1.819378
H   88.630066   52.649784   75.880608
H   56.490032   37.447998    4.168596
H   23.640745   33.412708   55.275059
H    4.827802   22.211756   70.583313
H   71.023201   36.277481   50.278217
H   89.322433   31.737257   99.391449
H   22.110022   43.681660   55.048515
H   35.284157   26.559605   32.401779
H   76.414810   63.928600   80.150879
H   92.603210   66.099075    6.735884
H   29.690054   63.157928   48.875553
H   80.555542   98.739838   57.536583
H   89.260376   39.402988   23.104317
H   74.216064   32.067978   74.347885
H   90.826851   59.853340   83.236496
H    9.865110   37.165207   60.914108
H   25.185135    7.705612    0.800565
H   70.242706   71.489944   43.935661
H   61.077484   54.266949    4.186563
H   26.084913   47.368973   97.338997
H    0.132121   28.003531   77.987755
H   70.922035   16.373840   52.623703
H   98.686790   49.747227   93.044090
H   70.535248   63.482857   94.468544
H   96.774841   59.872814   44.585732
H   19.159864   44.752411    2.449518
H   49.174736   51.286518   64.524086
H   47.229443   92.693581   75.120422
