100
TIME:    1.540, STEP:  1540
H   13.178633   80.795517   97.736099
H   58.432350   88.241478   75.142998
H    6.225982   84.698128    5.257724
H   81.735092   69.201988   55.751774
H   81.377411   96.195320   23.948448
H    4.135710   99.539696   31.256807
H   72.257820   65.327156   10.882866
H   98.845329   21.831844   66.797264
H   15.771858   38.228745    3.148835
H   32.754738   38.495476   67.996666
H   57.007980   28.207539   91.408936
H   97.061188    0.883125   83.310432
H   45.302567   68.535210   72.064842
H   78.829979    0.329220   74.435356
H   99.231483   32.467754   76.746872
H   39.604736   77.037041    5.207721
H    0.253788   83.839645   13.568843
H   34.053482   19.810669   46.157516
H   69.247124   42.959106   44.494892
H   51.026550   73.109238   21.182962
H   72.890854    2.904814   15.446419
H   10.013129   46.132561   88.126747
H   65.182808   82.097496   88.288315
H   75.958824   55.151615   92.700073
H   74.504875   64.037422   47.924637
H   39.597675   81.721176   44.828117
H   29.282509   78.462112   30.525869
H    2.601738   28.321697   17.676191
H   44.656815   88.813049   84.376122
H   60.043621   52.725021    5.814518
H   76.680977   60.144348   87.550171
H   62.993717    9.965396   56.698555
H   78.833694   55.808372   36.532318
H   43.170311   32.590828    6.873919
H   42.492714   42.508034   18.504227
H    6.451467    5.458391   15.345490
H   27.505383   48.138527   29.811163
H    0.341556   30.767757   31.114956
H   81.488266   47.633537   94.524811
H   18.142992   68.014412   59.199131
H   29.999237    9.024398   78.626266
H   93.214752   80.974281   75.151932
H   24.505758   72.734863   12.709525
H   81.020149   38.580681   31.307379
H   23.072292   71.128555   87.891800
H   58.219387   92.289925   89.424416
H   52.341053    8.814168   40.782417
H   56.321659   11.239138   63.864407
H   10.047635    4.907313   83.043381
H   58.188519   54.189182   75.954552
H   43.427128   20.966597   69.654373
H   79.974327   20.838217   72.964584
H   40.825073   30.938171   13.428391
H   41.029049   82.079933   99.773392
H   18.160110   93.509384   13.474115
H   95.493118   10.913481   40.201569
H   93.881622   45.111061    2.454180
H   11.385553   31.453926   73.888504
H   11.734009    3.836760   93.256592
H   57.393406   46.158016   19.808311
H   56.845226    6.955752   94.325737
H   44.253540   13.610762   25.674171
H   78.690598    2.136419   27.908302
H   48.788895   50.171707   85.329536
H   93.446953   37.846798   38.978359
H    6.740694   65.715096   37.242168
H   64.011520    1.605760   41.414135
H   73.987389    5.610892   39.823505
H   33.655746   39.131744   63.647911
H   61.581291   25.600203   98.490326
H   73.130196   90.618813   43.677555
H   46.986698    0.415310   69.374290
H    6.580427   42.130947   22.260456
H   96.296928   51.926155   11.681816
H   36.421501   30.834936   18.140396
H   62.068615    6.271724   92.307396
H    6.776604   93.070053   18.283209
H    4.332331   50.024559   99.487259
H   35.369263   48.991062   34.860985
H   24.001144   25.081892   88.248878
H   41.018612   45.213665   72.030907
H   56.871700   54.284927   58.003738
H   15.238423   32.960083   76.577301
H   56.109241   43.941387   22.767982
H   77.344025   52.557259   98.466827
H   15.846539   65.623817   48.725594
H   70.007835   91.382370   96.976135
H   80.746124   81.998566   79.735298
H   87.641304    8.427800   15.600107
H   30.181454   45.916550   79.268135
H   87.045662   56.585964   65.983719
H   92.231361   11.328833   62.863121
H   84.093681   73.773788   38.053970
H   96.074104    6.644561   30.653336
H   29.967358   11.785225   51.473747
H   21.119308   34.917473   87.905792
H   40.364090   56.057873   48.622437
H   12.519500   29.349854   31.396706
H   35.349846   43.488628   16.052898
H   34.880600   39.146908   49.362007
