100
TIME:    3.577, STEP:  3577
H   75.424469   93.992279   95.871170
H    1.768820   98.683258    3.636066
H   41.240128   31.247177   81.353020
H   82.076996   85.277214   44.095921
H   63.132187   59.469830   68.717529
H   72.555061   97.332863   32.988083
H   65.498055    2.872845   70.178993
H   38.741150   98.058578   79.765968
H   65.698448   42.379486   74.928368
H   77.091072   67.743782   47.762611
H   67.531204   10.170843   95.194939
H   19.315788    2.987321   38.313820
H   15.729775   45.293991   69.603569
H   77.969002   94.050545   29.451374
H   24.011005   50.515091   78.829964
H   57.701218   98.871452   36.119484
H   36.466164   18.562038   99.016769
H   77.579185   20.751335   75.535339
H    0.981711   28.412767   51.811352
H   96.149925   29.854765   59.871422
H   52.012466    0.114941   60.154541
H    5.310822   48.832504   14.663651
H   37.985924   65.530708   30.009010
H   86.699425   79.582184   41.414661
H    1.650810    2.484467   62.956764
H   30.256037   21.027330   53.898064
H   53.630764   93.784927   70.945534
H   30.725294   23.401962   85.008324
H   88.948883   73.625473   88.086067
H   38.150635    2.308713   67.749847
H   56.834324   42.811886   26.378090
H   91.611275   53.680809   68.123253
H   22.316179    6.772319   20.041365
H   29.238720   45.911995   21.057510
H   91.855957   88.526237   42.542084
H   83.564674   65.478485    8.339684
H   22.880184   73.538071   90.319023
H   16.148888   93.487816   74.859764
H   94.085358    3.481863   97.674751
H   26.280350   77.316925   19.464792
H   90.789581   78.918488   26.618269
H   10.140800   72.397263   70.851807
H   42.051632   84.950150   59.843052
H   50.943130   72.720459   30.474360
H   46.377064   90.761749   62.204403
H   31.939426   31.142597   97.692268
H   69.679977   19.367302   59.800781
H   56.430447   32.211899   89.902443
H   69.586960   36.202202    1.784966
H    0.897831   85.183006   33.484196
H   43.271717   24.307449   91.132141
H   78.968475   31.820038   39.238934
H   83.074242   42.749390   95.122475
H   93.859856   48.846024   89.660248
H   55.987350   72.064636   30.770597
H   98.041855    8.771765   70.857285
H   23.018450   86.333717   96.189812
H   59.705315   39.084396   21.420261
H   72.386436   89.905243   36.874813
H   22.974106    2.727210   61.872200
H   85.340309   12.225814   35.504604
H   71.959892   94.647873   33.506622
H   16.902411   63.195122   88.184837
H   88.665703   61.252495   30.024837
H   74.301003   75.155556   28.679892
H   81.604469   64.449562   57.683960
H    0.578628   72.026886   39.760479
H   33.278038   22.109892   37.203884
H   35.179596   92.765930   35.889561
H    2.856882   28.054903   94.200989
H    8.445858   52.020927   19.239704
H   79.026718   32.811600   18.512524
H   73.764282   41.372593   70.035881
H   51.469830   23.019371   90.621330
H   34.633320   33.737995   72.558754
H   10.218211   36.824730   55.241901
H   91.723274   16.515682   54.310383
H    0.034286   16.828856   11.983303
H   33.042793   43.011951   57.593407
H   24.102638   14.142170   12.759396
H   80.874893   66.287369   93.778137
H    9.710235   67.588089   87.670654
H   44.115742   66.963959   70.591492
H   96.242371   18.250553   36.713005
H   78.158875   25.140812    1.002488
H   68.969727   40.443680   90.180832
H    6.054480   43.275887   94.108383
H   13.534590   18.910873   58.543167
H   29.917450   95.011024   98.935555
H   50.084156   62.110199   52.085228
H   70.408173   66.577766    9.001504
H   42.956039   64.515190    1.684048
H   14.746953   34.844994   95.619347
H   92.958046   30.203751   67.996132
H   94.745079   29.323734   98.283470
H   89.367096   54.479195   82.692116
H   78.677063   72.957344   31.473330
H   19.996565   46.693695   98.800896
H   38.313286   52.269337   45.426140
H   61.390728   86.841896   53.156609
