100
TIME:    7.203, STEP:  7203
H   30.212336   61.471199   92.551468
H    1.548010   95.183067   32.277058
H    3.583703   92.117058   38.789120
H   82.685608   35.887665   45.342251
H   30.653860   50.109554   70.402451
H   16.317982   93.404549   92.083298
H   75.459961   47.719425   53.737133
H   53.744698   11.753526   46.838776
H   76.564384   93.754211   46.684139
H   78.020088   19.809404   89.744331
H   30.249512   56.070866   45.919838
H   80.922943   84.739914   80.211876
H   84.438255   25.997005    9.292557
H   98.432198   82.874214    5.390706
H   68.093636   26.625359    4.511363
H   11.906158   81.728210   35.129395
H   44.884743   58.392048   29.105860
H   55.100491   44.340958   49.832260
H   57.451496   80.528381   42.843197
H   98.458145   52.847065    6.746304
H   36.840485   39.136185   61.738438
H   52.938965   53.646072    5.876275
H   89.571770   36.040688   26.264616
H   49.795807   22.997042   72.117065
H   71.963814   14.925636   89.735695
H   13.644543   13.757221   13.048102
H   40.956234   43.057205   42.887745
H   24.773804   92.651405    4.864259
H   67.793129    2.604803   16.682451
H   77.188385   12.565676   56.006279
H   99.537621   67.961716   39.500572
H   20.558926   53.498035   32.446251
H   77.727180   41.476204   46.700081
H   82.445396   13.610662   68.300400
H    1.692791   14.301826   63.289490
H   98.782509   49.598862   96.780617
H   70.659714   40.746704   76.033600
H   66.277184   27.133732   30.737076
H   41.031948   24.474882   46.287872
H   84.751152   37.862537    4.751130
H   42.977173    3.337264   12.044355
H   93.184242   69.849716   47.685352
H   73.276276    6.696569   21.754467
H   19.408314   33.544640   85.006584
H   31.849236   47.697384   72.490181
H   85.147209    0.303007   12.424227
H   98.008102   16.561668   94.605659
H   56.627254   69.558548   14.258381
H   75.579659   35.897343   57.145157
H   76.968018   40.367702   79.898842
H   43.007000   74.240265   29.356319
H   55.194546   95.353516    1.204519
H   58.285732   63.774170   84.530037
H    9.889221   89.679016   49.664383
H   67.281326   89.841286   61.615612
H    2.567087    4.956866   47.419678
H   52.889782   81.706779   41.052757
H   89.705734   96.652580   28.023321
H   58.361328   43.119068   58.510735
H   83.694984   81.434830   58.740135
H   14.071129   43.598335   52.792587
H   43.269386   60.897568   69.442642
H   63.073559   15.763053   39.539124
H   37.656734   81.000870   31.578121
H   18.221439   85.552826   66.353004
H   58.855743   84.190941   72.081421
H    9.658072   97.389709   14.822906
H   82.805183   29.485178   10.547652
H   15.897701   32.224686    8.472203
H   76.315392   10.431148   86.565674
H   93.303932    5.309636   75.746010
H   80.115746   12.434144   84.023613
H   37.342590   62.021221   77.065247
H   71.640053   93.541809   75.175934
H    9.447511   38.921215   47.437946
H   95.938744   69.218773   11.259364
H   20.968979    2.361837   18.487532
H   70.390366   79.734337   12.233478
H    6.924348   32.361240   98.042824
H   46.282791   16.637848    0.376403
H   51.825462    3.800698   10.496177
H   81.803719   91.183228   84.401115
H   73.481880   27.577673   15.920038
H   45.704044   28.535732    5.535050
H    1.603331   98.331200   49.502266
H   85.513657   73.633926   41.981476
H   48.226871   79.635689   67.010185
H   71.873070   28.682276   20.893990
H    5.165124   93.121162   69.279549
H   29.496504   12.923923   81.706161
H   18.799183   62.371315   85.575974
H   11.247957   37.213409   70.769478
H   47.179615   43.645725   76.023628
H   43.408401   50.170494   12.486072
H   32.058037    4.528007   81.604004
H   88.859833   11.293612   95.404411
H   90.862358   81.045212   22.938011
H   24.373865   42.863468   34.281891
H   65.578758   67.906502   41.710926
H   86.617317   93.794144    3.851859
