100
TIME:    5.504, STEP:  5504
H   45.109047   17.276989   94.106949
H   48.467659    3.116316   25.149925
H   74.367981   69.883850   58.738163
H   82.400436    5.884842   38.469963
H   45.872223   13.927294   16.469364
H   42.670422   95.245201   23.825613
H   64.503822   32.994152   20.873049
H   87.282745   64.766769    2.834186
H   18.329109   57.106247   53.630600
H   24.430128   95.412651   23.219999
H   88.286362   87.708084    9.576714
H   45.769691   99.577934    1.148833
H   92.845322   28.753159   78.116631
H   82.555916   88.111000   76.097404
H   47.448250   78.388138   86.200226
H   80.219604   30.329178   76.160858
H   81.508125   46.016911   74.439178
H   18.767050   27.012634    8.729074
H   30.995110    9.251475   53.332905
H   44.228615   88.930214   91.070564
H   37.661552    8.276154    7.856689
H   90.054184   51.390625   50.561829
H   12.257163   49.858543   74.874161
H    7.656666    2.672091   98.297745
H   32.728668   49.665718   77.188148
H   21.455984   63.948959   72.845764
H   87.462921   13.681625    9.173353
H   68.129372   13.347801   48.707024
H   30.850456   48.457737   96.995880
H   12.041452   54.615776   20.940670
H   32.671791   15.610139   73.919975
H   13.283045    0.444618   89.731224
H   58.052570   65.783485   93.640739
H   10.658265   69.313988   39.875694
H   43.957352   42.859970   59.882019
H   51.090733   16.525467    2.122181
H    7.704575    2.966212   42.158916
H   36.501637   58.230389   10.844240
H   12.745643   61.494011   10.933966
H   44.777950   96.916832   71.078575
H   59.092148   45.037552   72.017555
H   36.952324   58.881729   61.377705
H   58.650013   96.505798   99.034279
H   27.894833    5.027318   18.888220
H   79.224007   14.733283   27.102911
H    7.076986   67.897202    5.521780
H   84.734665   24.164505   78.299034
H   56.533360   52.059387    9.134208
H   25.917908   76.608093   24.916695
H   41.313198   14.505751   98.708176
H   43.124699   38.268143   11.448022
H   72.616707   53.009899   12.733849
H   23.041126   53.922791   83.205711
H   49.229927   17.398781   74.692955
H    2.557858   40.949299   47.162601
H    0.450935    6.744049    5.257660
H   45.180878   30.731346   79.463600
H   16.216522   57.102882   71.784775
H   24.365744   71.326561   88.938133
H   95.812302   50.844624    7.063728
H    6.896816   22.610905   85.260735
H    3.569862   76.711624   46.316597
H   47.727444   31.700468   56.044647
H   20.988983   71.745758   77.707245
H   50.786858   21.248413    8.132373
H   63.226555   68.652946   71.622765
H   45.972565   38.649975   32.796158
H    0.166670   32.317600   29.325628
H   31.220732   54.303993   15.030570
H   41.895737   24.976967   90.143280
H   47.256279   20.908539   96.122810
H   20.137451   68.857880   59.600021
H   48.120544   46.054993   20.624779
H    9.046322    1.071420   76.124718
H   27.541666   36.487240   18.638626
H   55.778755   60.328842   25.580458
H   66.683403   49.496471   88.389259
H   90.568253   90.827293   18.404383
H   25.450123   37.351742   79.091881
H   29.601467    9.189723   46.746674
H   18.576471   86.223068    8.950500
H   54.301292   80.165100   26.531443
H   66.016472   99.165710   54.117512
H   28.816671   83.148117   60.710697
H   84.329704    4.605596   14.201216
H   24.615910   11.224410   23.997833
H   34.754448    3.167191   85.995422
H   44.548454   64.639099   38.509811
H   69.906845   87.718651   83.175179
H   79.711456   82.826340   20.972639
H   49.269035   70.630524   49.696209
H   85.539162    9.432940   38.399803
H   38.270386   92.666756   44.637348
H   79.207893   47.094433   97.925484
H   61.430702   56.715679   42.561436
H   48.529434   78.384918   83.160049
H   25.720541   83.544075   20.649277
H   27.068151   63.100952   67.956429
H   46.515137   60.575878   84.019356
H   81.085327   37.392811   67.523758
