100
TIME:    3.211, STEP:  3211
H    0.175924   27.556175   96.206253
H   11.950245   78.840759   80.548935
H   34.948944    4.916632   85.647667
H   82.015564    0.355986   64.158997
H   66.410416   30.133312   78.641571
H   78.229134   97.729378   96.741661
H   84.681557   78.160194   41.557320
H   67.508026   66.393234   13.370047
H   74.695427   77.568787   97.965324
H   87.093300   62.488564   33.429436
H    1.575634   95.444275   30.450029
H   33.285957   84.641632   64.366524
H   39.010635   67.437393    5.982107
H   96.091408   95.178658    1.597613
H   19.558590   83.208023   96.421822
H   72.416946   30.883392   66.500343
H   65.897621   94.353989   65.698349
H   69.760582   38.549828   88.223816
H   95.280006   13.057590   32.530117
H    6.010826   37.626286   34.952415
H   73.731430   36.552368   70.088669
H   70.222046   48.346634   45.831955
H   42.872551   68.507362   40.480621
H   20.704849   75.192596   68.597801
H   14.740659   31.511032   60.253761
H   31.935640   31.932886   88.204155
H   85.190918    8.998788   63.685284
H   61.606045    6.318314   72.911827
H   80.990662   40.418747    5.387160
H   24.117027   11.367822   38.653473
H   42.428547    9.992488   55.334846
H   68.501717   63.791939    2.005720
H   96.535492   33.549736   87.069191
H   13.773343   79.453804   36.475922
H    0.953559   16.193329   20.256271
H   51.738369   36.725712    9.602193
H   87.775642   86.941391   61.479549
H   31.275093    0.183966   49.032070
H    9.534114   11.455442   33.142090
H   60.752247   11.579867   90.669044
H   15.802752   66.358459   17.995466
H   43.034782   55.971245   53.656464
H   38.899059   82.755356   33.407795
H   74.315170   66.588440   94.688683
H   78.124626    5.203033   30.885260
H   36.661304   24.161701   96.206734
H   66.820602   99.462128   56.285202
H   56.410900   28.443533   67.256416
H   58.887978   66.513481   16.385466
H   93.224113   79.615044   59.081745
H   43.299641   59.642258   87.273102
H   61.181156   65.783340   63.267178
H   75.484612   40.627197   16.379009
H    2.336689   54.818878   73.509247
H   85.128403   39.988113   27.658514
H   97.583908    9.157110   83.316788
H   99.816246   96.894417   61.380272
H   86.958733   73.648209   30.848660
H   43.521019   74.441162   64.974220
H   47.125214   74.596725   72.282112
H   62.253090   29.246128   64.039719
H   84.949944   98.054550   50.068100
H   92.055031   88.169975   13.282578
H   63.534424   59.261543   39.962841
H   59.774342    4.386229   94.595192
H    4.088451   82.644569   36.043182
H   29.944397   59.372936   22.089651
H   58.560051    1.177069   19.706968
H   16.937119   19.064339   58.845539
H   95.440979    9.646040   94.971680
H   20.068596   76.923180   23.630688
H    9.205958   44.958359   91.716064
H   97.627777   59.475452   79.418205
H   59.528072   46.181442   12.369270
H   16.987219   33.215824   44.813877
H    1.565180   13.367235   79.869507
H   58.493748   48.238983   47.837696
H   82.838943   40.761272   91.770874
H   15.492799   44.087009   53.508186
H   42.051918   34.075565   44.290634
H   73.715286   62.500927   71.902802
H   82.249420   65.197830   18.275717
H   20.958715   60.854279   35.731693
H   71.060883   86.931000   70.140839
H   95.979706   48.035358   36.481911
H   77.391479   26.998993   64.764786
H   81.610146   69.887062   76.656143
H    7.644110   48.213882   62.349152
H   22.320839   15.389095    1.929589
H   82.443207   77.166946   39.003029
H   55.429962   46.815884    1.272194
H   15.873781   36.990967   94.708961
H   91.286026   23.862646   67.316002
H   57.583942    8.003105   43.319611
H    1.072757   62.108814   89.872887
H   59.137024   68.932442    1.596437
H    7.728553   51.953228   52.522163
H   18.653440   43.577423    4.657621
H   55.748772   50.691654   76.082344
H   38.658138   96.235390   88.413788
