200
TIME:    0.339, STEP:   339
H   12.513260   62.146435   17.032415
H   28.846676   34.323452   93.916183
H   16.062666   73.471367   50.224480
H   21.179655   78.130898   41.910870
H   14.159035   86.238388   52.235119
H   86.397949   50.127979   62.619007
H    4.793555   55.233887   51.567585
H    5.107162   93.161438   21.558250
H   91.448990   86.022041   45.304314
H    7.376210   73.512138   92.167503
H   15.644404   96.709053   96.090164
H   31.187180   44.665295   17.459442
H   13.604007   90.293480   57.234154
H   99.724182   53.624622   47.036343
H   14.842102   72.706696   42.735004
H   26.414726   21.887314   52.187366
H   88.864655   12.355158   10.625444
H   34.211277   87.926247   41.757851
H   68.319328   26.117781   43.941204
H   90.371216   78.345116   33.632992
H   59.273178   81.700249   21.304836
H   87.825035   52.598473   66.759621
H   92.040619   61.821648   46.760757
H   10.705161   88.961777   91.275650
H    7.549510   16.685663   41.877766
H   18.579142   66.729774    3.686811
H    0.812839   60.783222   53.062347
H   96.782257   74.213394    0.991765
H   15.238282   53.520576   37.758663
H   88.575722   23.416428   95.201324
H   13.232240   55.585331   16.315851
H   30.125771   65.826645   96.040512
H   24.731232   11.115796   74.388405
H   93.150017   63.685928   40.020714
H   43.237537   85.710251   33.466045
H   29.827396   47.664707   80.611710
H   89.105942   72.292229   86.698158
H   28.018007   47.316193   10.716211
H   49.406242   42.855568   46.632229
H   89.133324   39.281376   59.829193
H   80.533768    0.599198    4.810305
H   18.266954   41.030918   36.895626
H   74.919327   85.507690   54.004375
H   37.060715   68.042198   22.289040
H   32.159481   79.315636   47.936531
H   39.666622   11.262040   43.764572
H   81.839767   21.361958   98.349770
H   87.705627   65.549095   44.088638
H   90.909035   24.995251   61.237709
H   58.574615   18.248270    1.523995
H   75.853180   69.243057   23.945274
H   17.353636   37.401958   65.670189
H   54.846409   91.589066    9.223395
H   20.933172   84.272888   83.169220
H   73.008438   74.183205   87.571594
H    4.036545   69.911163   81.890015
H    5.147951   17.120094   48.592625
H   68.490280   60.880825    3.516613
H   26.092163   76.389908    9.520912
H   40.813568   95.433266   65.164116
H   50.098888   13.444889   39.344044
H   91.715446   16.659407   49.824890
H   74.174736   27.257324   81.544937
H   26.524714   65.293579    5.877872
H   72.939812   77.554947   21.977875
H   34.856274   20.407352   34.642807
H   82.477150   21.073744   87.880501
H   96.787025   91.675011   89.231583
H   20.043930    7.191091   60.726746
H   44.667084   43.355492   50.977306
H   58.421734   78.304420   75.929459
H   29.358126   21.219601   44.071831
H   80.635880   27.374630   96.180702
H   11.090631    6.788617   63.454514
H   80.350510    2.474159   62.957741
H   55.816101   15.581417   62.230549
H   95.009140   33.635731   70.745232
H   22.888399    7.772675   44.582237
H   12.283226   34.104156   32.745792
H   66.784355   90.114815   89.566620
H   47.569889   28.428848   99.664047
H   30.989500   66.809982   84.796715
H   10.613466   14.752248   87.383102
H   21.445683   65.096855   97.078217
H   35.382809    0.370722   54.976597
H   27.456385   82.310471   25.721958
H   40.292286    2.990403    1.998283
H   74.508202   14.859723   15.176253
H   68.715988   72.296898   77.526611
H   22.948269   90.484604   53.776348
H   37.092770   35.747429   80.314140
H   83.365829   89.404068    0.528022
H   51.962631   15.745562   92.910255
H   55.588531   90.876892   71.823029
H   27.633474   55.587036   72.063019
H   65.172249   29.922733   24.406895
H   80.648537   10.854975    2.592911
H    4.173122   29.977087   49.530910
H   34.774635   68.786308   53.232090
H   68.925781   99.536194   27.274576
H   14.283207   83.163635   73.601570
H   94.253685   78.154350   65.318512
H   25.231573   33.552017   31.886381
H   26.633034   68.122269   94.093758
H   25.207504   26.171711   28.297226
H   91.342407   21.925869   39.255810
H   70.348022   31.326048   55.798492
H   64.168098   38.075474   14.913478
H   75.312500   38.839993    3.919743
H    7.546966   26.680059    6.021796
H   48.497074   95.206482    0.865505
H   89.969154   65.834900   91.638840
H   55.374577   81.423485   91.781982
H   62.888817   17.263029   72.401031
H   60.546532   86.091049   23.301443
H    9.998245    2.901084   83.400536
H   28.504574    9.836729   85.334213
H   40.268833   31.869362   31.999596
H   22.622086   61.430492   78.646759
H   73.395248   48.650753   53.035847
H   41.587837   22.417309   84.275772
H   14.017441   25.134792   51.100262
H   34.623177   17.647213   26.965984
H    2.618691   63.756054   13.529859
H   73.954048    6.500897   89.538864
H   51.349346   65.061203   23.619884
H   92.925835   49.652176   67.231384
H   73.263199   88.346428   35.838703
H   93.686035   48.900101   82.634155
H   72.543678   23.680109   68.188217
H   52.605301   81.650848    7.194691
H   77.900040   87.033279   11.661649
H   92.114479   87.411346   98.111580
H   96.066185   15.541270   50.925785
H    9.316776   99.580063   51.867653
H   59.721291    1.499793   82.223099
H   69.056618   86.816795   60.267059
H   92.062782   61.129845   81.634125
H   48.900925   45.718117   71.526672
H   43.501572    4.341768   92.706650
H   55.518864   60.157322   18.107895
H   52.680756   44.018848   48.554741
H   51.823002   58.583176   96.045021
H   53.176689   22.943979   79.764961
H   44.955402   66.483742   52.305805
H   49.567509   63.681599   25.104710
H   47.072716   96.344246   46.573036
H   39.949188   69.733536   68.256981
H   67.831879   60.658916   96.960289
H   12.617761   89.755646   86.292137
H   72.730690   62.991268   50.596817
H   37.954792    4.370428   45.049892
H   80.774834   28.136814   99.989067
H   12.526946    3.415143   73.506073
H   17.538261   56.493546   62.544430
H   66.441010   43.774380   57.106747
H   60.347546   63.852333   81.928024
H   47.453587   35.071480   12.043501
H    7.850791    1.361303   98.933548
H   62.569748   52.904419   82.040283
H   54.928410   80.387360   80.783630
H   38.955929   22.543257   34.686321
H   69.480812   30.253649   37.190887
H   14.908570   23.087982   66.963013
H   58.006271   25.447603   10.797290
H   13.619374   61.289276   61.760643
H   73.195099   95.965706   53.271202
H   23.718697   35.436855   52.106495
H   95.418167   27.848259   36.623165
H   30.990841    9.712618   89.288513
H   77.473694    6.811159   35.967766
H   42.742897   61.770031   57.762127
H   39.585766   73.200333   87.638443
H   70.006767   72.171097   76.537094
H   66.836517   94.291809   94.576447
H    3.963950   48.195610   23.381725
H   34.400719   56.013767   91.049332
H    2.607413    9.295273   66.146103
H   73.069771   19.078135   67.976952
H   81.591171   55.517067   87.781570
H   79.610359   88.737106   39.417492
H   21.224518   30.226894   73.230324
H   61.077362   90.063034    8.029445
H   53.636669   25.403648   80.832390
H   86.803215   84.040443   77.988968
H    1.332967   37.059143   84.449684
H   34.799225    2.828771    1.458709
H   85.664864   71.418037   28.990587
H    3.751410   61.614883   67.674866
H   51.413853   57.734776   66.953812
H   52.549644   27.748943   78.594490
H   46.841335   87.619614   23.363398
H    6.299509   19.879271   60.074032
H   33.373905   67.482155   35.308434
H   81.497223   49.833374   21.492445
H   75.569839   10.626372   28.210024
H   10.119344   88.258888    6.808270
H   26.032326   95.438599   44.174709
H   10.593122   11.888905   73.589439
H    6.975180   31.638765   96.373375
