100
TIME:    1.287, STEP:  1287
H   30.287367    3.996920   97.967728
H   65.469994   74.525215   59.183804
H    1.877490   66.495995    8.228378
H   81.692627   79.625267   69.619743
H   83.643509   75.916252   30.808510
H    8.059155   99.813789    6.201180
H   85.518547   48.242779   91.097847
H   18.730637   99.944595   90.025734
H   21.991081   62.553589   19.074644
H   39.668846   34.862770   58.089539
H   80.541428   18.027470   15.779463
H    6.717533   88.201500    1.319481
H   61.394951   83.841988   97.211967
H   91.357216    1.109220   55.182293
H   96.154686   55.065037   88.907364
H   49.777084   99.165276   26.208481
H   20.594177   67.108353   90.533958
H   28.646889   32.113998   54.928513
H   65.305580   32.344734   31.166605
H   57.842216   78.483017    3.957585
H   87.904236   28.092430   22.313236
H   85.753716   45.798630    9.668923
H   68.560722   84.155128   95.526703
H   99.465248   52.117283   11.489962
H   83.553825   84.104164   46.058098
H   40.757748   89.260681   68.541443
H   51.099854   88.978043   25.505323
H   23.948288   16.512508    9.313441
H   39.155640   65.858673   96.335869
H   50.342251   58.986710   85.701683
H   66.728676   37.456345    7.570288
H   47.019077   16.955200   80.120049
H   61.013424   74.319344   13.740079
H   32.480659   55.776833   17.532110
H   48.781425   61.632820    3.099006
H   84.454224   85.584366   16.215948
H    3.239459   57.403664    9.875825
H   10.798122   35.398396   13.262121
H   92.861221   53.034340   18.773682
H   41.972328   91.698418   39.292599
H   47.288368    0.343361   72.665695
H   15.952965   69.620628   63.265537
H   22.326521   71.217697   94.434944
H   97.176231   34.339951    6.570430
H   45.017548   81.111740   66.242264
H   61.483418   87.464333   88.397530
H   49.669605   95.166321   38.620552
H   56.308147    8.634283   48.210186
H    2.652746   25.860069   93.134659
H   52.882298   50.338360   93.650963
H   43.446430   45.392250   66.986786
H   67.678719   44.315228   89.572342
H   35.576759   29.471191   28.122318
H   46.887318   86.206779   88.608902
H   38.302132   71.330963   11.327209
H   95.176559   11.179371   48.814285
H   77.841354   52.411217   78.391808
H   30.225433   55.346535   80.404984
H   91.780327   93.146896   12.679272
H   74.089188   26.710882   27.004234
H   40.886028   18.720917   14.051718
H   53.233002   15.966133   37.122406
H   61.530518   19.389759   45.264992
H   31.414865   48.795448   92.197319
H   83.405861   58.054447   15.416638
H   22.282692   78.292519   22.282835
H   84.309891   92.858154   29.199375
H   91.463753   91.141525   27.728643
H   21.045509   57.310715   79.514503
H   56.456512   12.874998   99.023071
H   81.163841    7.833109   46.711887
H   67.847122    8.812323   50.850365
H   23.077175   54.644672   28.747982
H    1.864241   67.936996   26.718361
H   24.223721   30.474947   98.960747
H   56.086811   90.057274    9.331382
H   83.806450   14.998144   13.807039
H   92.445923   66.568321   85.516205
H   23.241587   49.732273   32.038979
H   36.408707   38.861366   10.044963
H   36.067554   42.596264   56.909435
H   37.887821   52.632645   79.159134
H   99.230202   28.737471   52.480228
H   38.704296   22.291849   45.876778
H   89.662796   68.382736   22.992119
H   21.670063   56.330067   31.156578
H   53.110542    9.777550   84.912155
H   76.673325    2.254410   82.364281
H   82.391060   22.513964   17.670193
H   52.550278   56.326317   70.223045
H   76.691872   42.925678   60.640820
H   73.511925   92.301125   58.043320
H   67.860390   66.191818   18.480703
H   71.621864   91.298683   13.594869
H   34.341724   34.448135   45.659874
H    0.222475   44.908379    0.973525
H   60.446274   41.538631   63.172562
H   11.590573   27.195709   35.444557
H   47.402245   42.398045   37.244968
H   19.168472   45.646015   73.729317
