100
TIME:    2.020, STEP:  2020
H   80.718170   36.776962   97.296646
H   45.080299   14.265570    5.421179
H   14.476812   19.230824   99.622871
H   81.815659   49.426598   29.439697
H   77.078094   34.669422   10.934607
H   96.693123   99.019676   78.793480
H   47.101589   97.736824   48.419487
H   61.118279   63.356503   22.724007
H    3.972541   92.078537   72.936150
H   19.638788   45.387566   86.790611
H   12.359543   47.521503   45.172634
H   78.743317   24.942614   49.142952
H   14.770564   39.494682   24.357632
H   55.062889   98.849648   10.962315
H    5.070221   89.592926   53.673943
H   20.305149   35.052620   65.364029
H   61.662476   15.582832   57.269516
H   44.311050   96.467873   29.516617
H   76.725151   63.097046   69.782593
H   38.095642   62.914318   53.863625
H   44.406967   55.120716    2.418465
H   56.038639   46.766106   47.256104
H   58.774117   78.193687   74.555405
H   31.361656   60.908451   57.052383
H   57.336906   25.969795   51.465897
H   37.396748   67.416977   99.838051
H   87.892036   58.509930   40.051014
H   62.099190   50.726482   33.542103
H   55.093826   32.361824   61.685692
H   78.449379   40.845139   43.972469
H   95.562813    3.188899   49.568165
H   93.301331   96.703575   12.262520
H   12.643311   20.689335   79.774506
H   63.451073   88.601883   86.652176
H   30.561340    6.223607   47.731522
H   48.185986   43.165874   13.695710
H   73.542694   30.560251   67.633423
H   80.500298   21.982357   64.985909
H   59.910423   37.386955   48.520157
H   72.931343   23.077356   96.963272
H   97.197411   25.494734   89.934860
H   50.075104    2.515182   97.703201
H   28.640280   75.613281   47.379646
H   50.368294   46.626335   78.238449
H   81.435143   52.190411   28.967314
H   52.026760    1.445186   91.372658
H   57.409412   34.708687   44.883980
H   56.347294   16.181154   93.564110
H   24.077177   65.151878   63.897850
H   68.254112   61.495090   42.382694
H   43.390507   74.625450   74.715408
H    3.301710   76.298706   41.453175
H   50.782349   33.721375   85.551506
H   29.914547   74.250343   20.953257
H   79.948273   35.588802   17.546949
H   96.093704   10.409025   23.861237
H   24.311304   31.260963   48.106300
H   75.643646   86.123306   61.525223
H   49.589233   24.118807   56.407692
H   25.719822   83.051880    6.156629
H   87.123550   84.632393   56.899677
H   27.217922    9.142073    3.954624
H   11.247673   69.404396   94.978195
H   81.749573   52.782791   72.299751
H   12.498588   99.509460   83.680115
H   77.253517   41.852791   65.623512
H   25.500467   18.199987   64.587967
H   40.830650   33.063782   62.770283
H   57.580307    4.641998   33.541710
H   71.306946   49.744003   97.479584
H   57.888496   57.959442   37.920719
H    7.409343   84.485107    4.516158
H   75.283722   18.389492    9.952106
H   85.735405   21.549589   83.153954
H   59.562370   31.517920   54.527813
H   73.414452   37.035599   60.008045
H   50.358322   51.467384   26.773809
H   26.883602   18.637400   25.996746
H   58.378296   47.584812   40.214989
H    0.460648   98.939972   46.896339
H   50.411922   50.179485    0.719844
H   92.885605   57.419693   17.866373
H   45.608273   40.972778   22.294773
H   89.127693   85.015602   78.925201
H   53.972443   22.531624   51.936066
H    4.798088   83.253212   82.058113
H    2.065955   56.482468   19.864836
H   88.473175   43.568390   74.742073
H   97.602242   81.702049   11.673410
H   87.743301   26.166794   96.428780
H    6.689361   82.505325   76.120438
H   27.747110   47.428303   72.010612
H   14.891159   88.158554   75.187759
H   42.468800   35.760418   63.015472
H   21.667187   68.791138   62.504021
H   60.765305   15.963943   63.113312
H    2.264604   83.604256   21.017456
H   14.281890   33.436768   23.715431
H   12.485058   45.557720   75.844315
H   64.690170   26.817356    3.130605
