100
TIME:    0.269, STEP:   269
H   99.131508   97.352730   98.899734
H   93.787468   19.329487   94.968994
H   84.386230   93.257088   20.181366
H   81.521759   21.567568   25.418108
H   92.761642   94.319061   58.411446
H   23.845020    0.920877    5.385063
H   38.872166   79.502174   11.488814
H   98.743423   11.874454   83.495476
H   47.015465   60.430145   83.154778
H   67.489250   20.248920   18.222948
H   75.233307   77.066376   13.838375
H   45.574451   37.174126   73.781441
H   26.151642   45.432587   98.392906
H   41.762638    4.247878   77.711479
H   83.774529   45.994232   37.841801
H   90.707718   88.208565   10.710346
H    2.439293   99.786507   97.846901
H    6.893060   81.619095   90.220505
H   49.453056   89.637589   77.534012
H   85.367805   99.891754   34.539742
H   48.313705   29.437592   49.940834
H   88.141212   44.454987   96.350288
H   82.152489   92.434456   24.654140
H   94.048492   39.907993   87.096527
H   19.962294   64.840721   38.544815
H   45.425114   19.594593   63.959129
H   38.882549   31.294617    5.304204
H    9.843826   68.995193   75.667099
H   17.020477   73.497826   44.456055
H   11.308522   84.181961    4.773692
H   26.683443   46.165001   88.125572
H   82.742249   45.078506   74.361412
H   89.305725   48.800652   22.030600
H   89.467827   49.070404   60.418648
H   74.085411   38.585922   41.108261
H   95.943260    5.616896   19.718740
H    5.599986   94.683937   29.661327
H   52.870705   54.030766   41.423542
H   38.627148   74.765633   16.343910
H   37.856724   87.000359   59.199417
H   16.858929   65.408684   48.677090
H    7.444992   23.929949   15.438077
H   13.558431   65.113052   20.903572
H   62.181915   17.279810    7.033329
H   33.321976   21.278442   79.126404
H   74.515877   68.261040   84.373177
H   38.920460   40.252224   29.921820
H   56.253780   98.152252   85.222153
H   72.891289   10.171238   33.743202
H   31.531576   34.843746   64.849380
H   43.524097   43.673622   56.253178
H   18.205770   38.777695   56.403702
H   14.459181   23.568481   87.247078
H   70.457199    2.813035   43.686176
H   19.344086   82.087051    2.688745
H   93.902817   12.249302   83.469406
H   13.305904   81.784966   81.571526
H    6.028976   51.482979    6.625942
H   11.493019   50.134781   90.832184
H   41.266945   48.464722   55.958580
H   76.669296   66.059433   93.422791
H   89.363800   25.441544   83.183609
H   92.478783   88.809441   15.103703
H   61.512245   43.257774   19.836897
H   42.999329   39.359600   20.612291
H   84.820351   28.900349   62.091244
H   65.986259   57.660763   80.049362
H   61.784111   32.922165   79.062355
H   70.310539   30.457695   43.361790
H   35.835861   61.675087    1.165098
H   13.490343   77.101692   58.921177
H   51.786190   42.597984   76.317177
H   89.452118    5.001888   54.851940
H   24.270058   32.356541   87.221138
H   75.140427   29.026453   21.790062
H   32.017735   24.812563   77.828781
H   91.378326    3.229003   95.792786
H   44.618439   33.131229   29.295864
H   74.447487   52.713306   20.687901
H   86.333206   94.303764   97.746674
H   16.145908   32.064587   96.066483
H   61.507366   45.984329   64.287170
H   34.816517   11.747277   55.520752
H   68.675568   35.180271   38.859993
H   39.232025   32.057793   21.675808
H   45.102726   18.934187   60.463581
H   85.120613   83.794426   36.370129
H   60.285538   83.757317   92.942558
H   61.265572   79.194862   26.000004
H   42.552437   98.218597   33.828182
H   35.031162   87.956741   39.142529
H   98.189903   15.737589   38.649811
H    2.543984   35.691338   39.725609
H   73.228218   29.549051   44.955593
H   51.941120   25.634098   22.268120
H   16.139923   85.108940   53.554771
H   41.250114   83.117836   21.718559
H    7.852876   18.528046   51.731377
H   95.897667   38.009846   22.519192
H   55.947308   71.794258   71.777451
