100
TIME:    4.022, STEP:  4022
H   45.330475   53.183411   95.463760
H   89.398140   22.809511   31.705339
H   48.889244   63.262749   76.131386
H   82.151688   66.943779   19.703123
H   59.146362   95.138542   56.651413
H   65.656258   96.850761   77.058617
H   42.177029   32.922405    4.978610
H    3.765030   36.555859   38.907482
H   54.759499   99.594376   46.916882
H   64.929893   74.133324   65.189331
H   26.138382   28.076221   52.329578
H    2.330221   25.292505    6.639060
H   87.415054   18.371918   25.376053
H   55.934929   92.678932   63.317303
H   29.424461   10.766283   57.439915
H   39.809143   59.950249   99.179626
H    0.681723   47.993992   39.526878
H   87.085411   99.110619   60.107235
H    7.912359   47.082314   75.256012
H   84.158501   20.404558   90.169121
H   25.605530   55.815289   48.078239
H   47.973404   49.423248   76.767838
H   32.044533   61.911552   17.275761
H   45.354134   84.919250    8.363749
H   85.734772   67.195755   66.243202
H   28.213896    7.768363   12.188770
H   15.256910   75.288528   79.772743
H   93.177460   44.173065   99.715813
H   98.624863   13.999457   67.050148
H   55.214310   91.294914    3.126461
H   74.347542   82.715858   91.171104
H   19.708570   41.387222   26.927345
H   53.662434   74.213768   60.130478
H   48.040924    5.130484    2.311463
H   80.794785   54.887779   69.638931
H   22.260843    0.434255    6.803741
H   65.560226   57.241684   25.383047
H   97.756599   85.346413    6.263672
H   75.303772   93.786125   54.550438
H   84.365776   35.656975   54.477650
H   60.376450   94.189560   37.102276
H   70.146683   92.367126   91.758713
H   45.884678   87.618683   91.987236
H   22.526873   80.176056   73.984009
H    7.777327   73.202393    0.283642
H   26.198345   39.630299   99.498451
H   73.156540   43.568321   64.075127
H   56.454212   36.795258   17.436455
H   82.596909   99.348480   84.035248
H   10.230906   91.952797    2.361426
H   43.237766   81.345161   95.824142
H    0.595094   90.527679   10.024265
H   92.302071   45.329651   69.279121
H   83.552391   41.583946    9.296603
H   20.556290   11.066378   34.555561
H   98.598648    8.303244   55.708435
H   51.228176   73.493523   38.513191
H   26.569328   97.059044    9.957220
H    7.484068    8.707762    2.711575
H   93.608856   36.932644   49.215340
H   13.411247   91.530907    0.809907
H   56.165977   90.505875   13.370511
H   47.114384   32.829521   57.669853
H   19.222582   63.673187   17.941746
H   91.962212   39.613522   70.120384
H   54.267281   42.327217   83.995834
H   64.875931   87.413391   61.244549
H    2.538607   47.560074   58.477459
H   57.359657   60.791061    7.978848
H   11.872492   50.438370   93.263947
H   94.315025   21.743023   13.900940
H   42.334694   18.042999   51.094410
H   44.749924   19.362286   58.626808
H   41.671627   94.859062   64.180443
H   56.086834   34.372875    6.292517
H   20.739100   65.346642   25.300304
H   32.126152   77.946823   62.180180
H   20.941204   87.731941   36.560150
H   54.380875   41.704845   62.560410
H    2.278638   89.907066   74.422356
H   89.579880   70.891098   20.374380
H   43.100693   70.494278   50.460571
H   72.270149   74.392395   12.975597
H   26.857718   56.330391   96.069901
H   56.491470   97.305336   57.864609
H   58.728413   56.790993   21.083267
H   35.775017   10.920769   15.328127
H   20.696512   83.283302   53.915672
H   39.152451   70.233727   95.296028
H   10.739371   43.800529   67.992035
H   88.619385   90.608147   18.399088
H   75.883698   97.977104   10.163849
H   43.271431   48.197845   30.031961
H   35.969509   57.197922   98.001854
H   87.051826   89.463066    8.508742
H   26.122330   36.906258   59.707420
H   43.354645   98.495140    5.879850
H   21.629599   50.482605   91.678017
H   17.114403   54.187557    8.151550
H   89.033150   75.420845   10.287673
