100
TIME:    6.685, STEP:  6685
H   65.242996    8.974285   93.025711
H   15.852551   67.115776   99.615456
H   94.677231   54.849449   44.871288
H   82.598663   57.228607   73.736206
H   35.294113    8.589567   84.447952
H   24.352451   93.965736   40.784206
H    2.610146   12.740131   13.228861
H   94.458473   66.938385   94.398888
H   89.297813   43.557953   79.290459
H   92.168343   12.371208   69.462532
H   78.432617   35.227879   95.816689
H    0.691120   58.775105   17.083450
H   17.483047   57.334736   60.766289
H   24.079582   84.470833   65.972679
H   61.802010   72.895683   29.421055
H   32.735245   27.034584   78.127441
H   86.539101   24.131931   81.950264
H   44.022961   69.546982   67.787148
H   49.385410   58.799194   15.554454
H   12.413193   63.845554   71.478508
H   67.579346   90.704132   75.799110
H    3.277802   52.958420   49.988770
H   96.487816   40.253548   41.085480
H   97.924751   16.800264   10.586811
H   90.490913   56.006950   85.910133
H   16.072321   29.033989   61.788780
H   85.624077   64.591690   32.608524
H   68.479996   68.472908   87.743240
H   56.529854   55.607372   41.167969
H   57.325504   25.386314   14.826988
H   79.153069   21.512768   80.483086
H   87.852325   67.809372   80.400139
H   41.239605   79.376137    0.034546
H   60.559074   61.082352   90.123489
H   14.585051   53.521736   31.772081
H   53.753124    9.026412   98.408852
H   20.977825   59.716431   35.217075
H   87.689262   36.614643   94.184044
H   62.898510   35.760551   96.486511
H   33.541424   86.356033   63.997601
H   78.379425   85.561729   99.841408
H   36.838669   67.818375   21.241539
H   68.818390    3.589256   84.338554
H   52.482822   24.850180   34.359726
H   76.780952   68.134109   28.164080
H   91.834038   90.422989   10.319773
H   93.961227   88.390579   89.634010
H   56.596432   64.223312   82.207855
H   60.436424   78.797951   77.807663
H   66.092041   32.483410   16.116423
H   43.042568   24.250105   23.896595
H   30.016602   43.421494   35.207710
H   47.540173   60.770630   14.613848
H   21.883621   98.128448   26.806313
H    8.524990   44.446609   57.209103
H    1.921919    5.501752   65.053619
H   20.052393   96.653343   91.786491
H   28.276468   45.571983   41.365952
H   17.509232   21.228794   98.276024
H   17.878410   41.619892   73.473289
H   81.395348   67.686539   93.181198
H   61.654213   65.719040   92.878159
H   27.904707   51.110878   75.059937
H    2.086126   78.179123   45.643383
H   97.661057   26.924023   18.113997
H   90.677460    9.941967   41.453217
H   51.218643   79.479126   89.813431
H   18.587273   99.858925   85.784256
H   90.081123   69.444870   40.961582
H   65.818810   84.378349   87.656433
H    9.753050   40.554108   81.958595
H   22.758593   29.663010   46.066620
H   71.116608   87.639221   90.344055
H   83.045601   26.326122    5.954025
H   84.481438   38.172169    8.166100
H   83.695366   36.018421   46.113327
H   73.923431   47.197514    9.301046
H   46.053783   13.604086   83.627342
H   82.082832   33.882771   92.264961
H   71.686417   44.856392   45.002403
H   41.687927   98.441055   79.536057
H   42.933731   87.824005   27.737694
H   40.716774   18.914831   66.589874
H   10.067407   84.208885   52.844952
H   26.825468   30.734520   99.716713
H   97.432968   54.606918    6.009858
H   13.630831   17.298836   42.310020
H   63.542198   70.134338   26.264793
H   94.414902   21.962061   73.516121
H   75.295456   34.237202   63.187141
H   97.600365   34.402824   74.636765
H   72.921204   98.255646   60.898560
H   13.974750   28.102406   35.965889
H   93.346535   18.743982   77.558304
H   41.013329   50.928711   69.700500
H   46.075195   31.747553   22.160217
H   31.978083   51.318069   52.728989
H   25.373728   17.233440   44.679672
H   90.255211   65.669655   85.098305
H   54.441090    7.087452   53.753895
