100
TIME:    2.272, STEP:  2272
H   63.676178   13.667270   97.065933
H   38.070473   27.928579   21.316977
H   18.808447   37.360336   96.665901
H   81.857956   39.044518   15.626711
H   74.820953   54.868336    4.102140
H   92.786385   98.746666    3.749132
H   33.895199   14.753254   68.126213
H   41.311577   85.158813   99.585793
H   97.777840   67.849838   57.073795
H   12.752970   49.005913   96.657433
H   88.919128   57.661335   20.899275
H   69.126434   37.574142   31.205069
H   98.741081   24.248405   99.311089
H   42.585167   98.072914   30.140324
H    8.135590   67.083038   41.559593
H   10.172047   13.011783   44.446060
H   41.402039   32.247993   80.213348
H   49.696274   84.213173   20.779327
H   80.651115   73.667709   83.060120
H   31.306915   57.563702   71.020973
H   29.452927   30.032612   95.578186
H   80.199203   47.100098   25.796463
H   55.409554   76.144188   67.345627
H    7.948142   63.930790   38.335800
H   48.323723    5.984291   53.325058
H   36.241261   59.908321   76.216896
H   66.162727   48.033642   45.051716
H   40.837074   62.488995   41.872265
H   60.573257   55.225471   49.773216
H   88.112404   34.608200   64.006035
H    5.476430   25.788183   29.628689
H    9.212645   89.739891   88.933662
H   30.393875    2.252416    2.476658
H   74.098473   65.507523   76.035538
H   24.296524   87.174255   63.075851
H   70.096024   62.962963   12.829576
H   97.713715   21.330774   87.490112
H   70.083611   17.370022   82.770027
H   49.172241   31.912249   24.138350
H   49.196033   99.485695   16.790018
H   79.974693   34.141422   95.871872
H   27.426788   13.825517    9.542107
H   30.810904   77.124451   65.581139
H   34.276070   50.850304    2.878475
H   59.575489   42.248608   50.532448
H   48.775631    6.251698   92.395485
H   59.480259   48.397125   47.265724
H   56.360752   18.775713    9.156364
H   31.442686   44.281872   53.844536
H   73.537437   65.330025   24.758152
H   43.371281   50.296776   77.372452
H   15.547758   52.915043   24.909138
H   56.009918   35.182556   70.916618
H   24.079433   70.139809   32.072662
H   59.887390   57.681484   19.684889
H   96.409012   10.144186   15.282562
H   40.286251   23.989662   72.073524
H   56.878998   62.325272   55.034500
H   69.463753   34.766918   37.060493
H    9.090990    2.420462   98.989510
H    3.019765   72.912178   37.252552
H   18.274914    6.796011   92.552979
H   28.340748   52.220131   77.690109
H   99.053040   54.153610   65.459114
H   22.500954   79.383606    7.147752
H   61.772682   29.325081   80.523720
H    5.281366   26.912283   76.754227
H   23.423363   47.475647   74.817337
H   70.139763   86.534904   17.735954
H   76.413391   62.419754   96.948944
H   49.886604   40.813118   34.896999
H   86.630310   76.121765   22.966505
H   58.853119    5.925228    3.490232
H   80.190605    5.602244   68.176842
H   71.712547   31.876486   73.630844
H   79.370689   53.187424   43.052570
H   73.238495   29.624746   31.231375
H   38.723019    2.159621   39.914501
H   70.461853   46.845150   43.027252
H   88.102119   85.216400   25.186256
H   55.343410   52.786541   15.781044
H   11.793427   59.065445   96.793800
H   61.552456   45.179443   46.296604
H    6.462542    6.579562   55.907745
H   41.702362    6.768448   27.507416
H   98.998108   92.508644   99.557686
H   18.896475   38.160019   31.881132
H   92.529877   23.392548   72.119637
H    2.832128   67.670860    9.611895
H   65.464127   15.798172    5.437343
H   17.002258   96.113541   81.442215
H   46.394260   66.379204   76.813286
H   31.059326   95.710556   94.682999
H   66.826088   51.047070   80.007362
H   17.309597   46.218208   68.294914
H   81.579453    6.013008   50.097260
H   82.261856   98.066109    6.524551
H   15.207145   35.582397   19.682762
H    0.480778   46.643993   54.734932
H   80.340195   20.344898   78.859528
