100
TIME:    3.156, STEP:  3156
H    3.895255   32.599968   96.256607
H   13.480272   75.858963   77.079544
H   34.003548    0.959840   86.293037
H   82.006332    2.622118   67.173523
H   66.903046   25.724819   80.132889
H   79.081795   97.788963   91.295036
H   87.564323   74.446587   37.256248
H   71.830917   61.634991   18.420078
H   76.047432   82.856796    1.427290
H   88.596367   61.698845   31.275545
H    6.691589   93.231216   35.747753
H   35.385300   81.884750   68.281548
H   42.508980   70.764954   11.448578
H   98.814720   95.348183   97.412209
H   18.889511   88.120895   99.065407
H   74.628326   35.693878   71.065773
H   70.320381   90.715912   60.691479
H   68.585655   41.224464   90.130554
H   94.423149   10.750117   29.632662
H    7.492493   38.794079   31.207758
H   76.995209   42.027946   71.581665
H   64.949142   48.273621   50.515717
H   43.606880   68.954674   42.054184
H   25.814941   74.532959   72.682350
H   16.707680   35.872948   59.847572
H   32.187885   33.571499   93.359566
H   89.933426   11.285174   62.593861
H   66.246788    3.751101   71.094048
H   79.794754   35.428665    7.986948
H   22.008244   12.729163   34.281067
H   40.263744    5.060627   59.686272
H   65.028969   65.311729    7.097307
H   92.661591   37.573860   82.114357
H   11.449401   84.494240   38.793045
H    2.320811   20.350891   16.907310
H   46.956417   32.404919    9.791230
H   82.500221   88.955551   57.145748
H   33.548157    1.190587   45.151035
H   11.855748   12.653658   38.472061
H   65.932571   16.728865   86.341957
H   19.561468   64.471024   16.699690
H   47.977867   53.502640   51.072464
H   38.425312   82.425537   29.435146
H   77.827362   65.666962   89.310875
H   82.895668    7.372976   26.178629
H   37.370876   23.112659   95.983498
H   66.390915   96.471100   55.756905
H   56.407963   27.877260   63.853325
H   57.280426   71.068840   18.579432
H   92.071007   78.778328   62.928371
H   43.303837   64.952087   86.693192
H   58.508198   70.886719   66.877647
H   74.344093   40.308289   19.573341
H    3.610226   55.716438   71.082184
H   89.507523   35.167976   27.190851
H   97.515091    9.215017   85.189117
H   96.329231   98.481407   56.149330
H   91.054192   78.842224   32.265457
H   39.183441   72.117325   69.196404
H   50.754478   70.369507   73.846443
H   58.783699   31.803692   68.328201
H   86.902000   98.566483   52.556847
H   88.321281   91.923027   17.054092
H   59.757454   58.962357   41.456257
H   57.591076    8.779048   89.473351
H    7.467153   85.378792   32.791153
H   34.357185   57.471653   19.434107
H   62.359261   98.031555   17.077650
H   14.195831   23.016289   62.295208
H   94.326477    6.879633   95.087494
H   21.815250   80.665321   24.290535
H   13.740861   46.783691   87.689423
H    1.213883   62.195827   80.828117
H   60.738667   49.662163   15.638084
H   14.335517   33.137356   40.644566
H    0.264863    9.842245   83.570526
H   53.499889   53.006248   46.865025
H   80.254944   44.357807   88.733688
H   12.855403   44.248562   52.894287
H   44.749214   37.071209   49.028946
H   72.639389   61.931927   68.615524
H   78.122910   64.838638   22.874926
H   17.478834   59.936157   30.493198
H   67.276779   82.224579   75.164490
H   98.657700   51.475796   41.813560
H   78.657043   24.978748   60.945431
H   77.936821   73.886009   74.033539
H    6.758928   52.617340   62.921089
H   21.179272   18.451269    2.379573
H   87.305725   79.429520   37.037125
H   53.179138   43.846256    0.110674
H   11.804024   32.854805   93.660759
H   87.760406   22.212294   63.062767
H   52.267818    4.666890   39.611458
H    2.023779   67.035278   88.609001
H   54.594254   71.104378    4.437347
H   12.094140   48.796871   55.685234
H   18.451605   43.109131    5.537663
H   58.368858   50.454571   80.688896
H   35.242039   97.646980   93.711868
