200
TIME:    0.667, STEP:   667
H   22.591951   61.057873   22.641012
H   31.770153   39.111874    7.231923
H    9.188145   87.827873   66.380241
H   32.236053   81.964638   33.333752
H   10.676575   94.551498   47.519268
H   75.727539   41.225544   52.910786
H    9.545691   55.001160   57.916279
H   12.457458    7.324633    9.915806
H    4.769207   81.104744   37.302757
H   95.830017   68.917656   79.229881
H   27.076818    3.715692    6.455269
H   32.543503   53.420086   33.087856
H   21.654362    1.179219   43.791039
H   84.221558   55.008472   62.841763
H   99.006302   75.231659   41.927967
H   16.854149    8.372879   45.111713
H    4.294377   27.717020   94.700325
H   26.422876    3.694346   35.918404
H   79.232475   14.243117   48.769665
H   91.414734   73.840721   20.918087
H   63.209518   98.073723    6.277879
H   80.522911   65.135704   54.119789
H   82.218536   59.436821   38.890579
H   17.652563   91.952194   90.247147
H   21.806099   29.877283   30.173847
H   18.307627   81.286476   92.853745
H    7.164850   67.364647   66.250214
H    4.309988   87.744095    1.854833
H   29.053009   43.550850   35.838039
H   73.753761   32.203140   83.855255
H   12.804009   69.288704   16.716867
H   24.161201   73.514145    4.116091
H   16.806000   18.173523   78.394814
H   82.294426   64.043777   45.753807
H   27.497002   72.157028   30.970852
H   19.113194   40.186161   84.372879
H   98.520126   65.212822   89.160561
H   11.793972   55.800720   95.968849
H   37.266899   31.110407   53.923092
H   85.987755   37.932560   47.016693
H   80.631363   85.276772   15.697443
H   34.592880   34.152958   27.169577
H   69.013565   77.972839   66.183762
H   36.330002   83.972740   34.019753
H   43.366665   89.322899   59.773079
H   35.050869    2.725888   47.331802
H   88.020798    5.292348    5.540934
H   79.720337   65.544090   32.297134
H    3.593954   12.548194   61.474190
H   46.836914   19.728464   87.647865
H   68.050568   65.091507   10.946465
H    4.815433   43.047466   72.722069
H   63.693241   82.209854   13.509067
H   16.051535   91.194641   88.026459
H   59.124893   66.888588   76.963745
H   99.831841   61.830441   92.630493
H    4.211881   18.361305   45.074192
H   72.073776   68.505760   97.596291
H   19.171036   82.726089   17.453907
H   33.227417   93.591469   59.100700
H   49.036602    7.045521   29.760798
H   97.610802   17.436415   52.339569
H   83.211052   34.051888   70.479141
H   34.472038   65.761536   13.201221
H   78.212456   82.444717   35.390491
H   21.989483   33.150352   40.538559
H   70.225197   14.155035   94.657112
H   94.950233   92.420738   95.725418
H   31.710938   11.623540   56.575195
H   42.778992   49.072319   50.959789
H   58.277843   83.977455   84.703018
H   20.139757   12.598188   41.775841
H   91.046036   33.045162   85.197487
H   21.776539   99.578949   73.003761
H   84.344406    7.783715   47.535194
H   64.106689    4.001628   60.087208
H   93.622787   45.846394   66.105705
H   10.739808   13.745377   33.366295
H   14.776909   48.717163   25.481205
H   61.841484   88.285530   74.011444
H   61.490971   22.885315   94.794296
H   45.412277   60.911072   74.656822
H    9.333780   18.350132   77.786240
H   10.749622   75.822319    7.768328
H   23.702663    3.839188   45.681278
H   36.696957   70.834274   18.894047
H   54.992878    3.673882    2.750266
H   71.780540    2.651884   27.547697
H   78.755478   73.096519   78.708557
H   21.305416    5.186775   50.167828
H   23.343500   38.578941   78.855217
H   81.081100   92.281876    7.684856
H   67.544365   12.046328   83.568642
H   40.880432   79.092896   80.829315
H   35.944412   51.150208   85.723846
H   51.588997   37.256138    8.985091
H   85.097878   99.510017   16.718948
H   95.156540   35.073559   52.636440
H   27.342384   65.500603   54.394474
H   74.628845    4.865670   27.354654
H   28.917448   92.232483   89.046638
H    6.450096   83.116692   63.509247
H   32.030708   21.564777   36.469620
H   42.393623   68.727859    7.119325
H   24.772705   21.861256   38.931351
H    4.327829    5.867077   23.899246
H   85.885681   35.398773   54.272003
H   62.235069   50.669010    2.230227
H   83.648132   34.699703   19.780216
H   18.083494   22.106848    7.627112
H   52.812534   92.356201    1.096277
H    3.139298   74.082947   95.374985
H   49.677769   85.229698   84.647522
H   61.777733   10.191755   63.942791
H   49.600853   99.749374   11.800734
H   96.612473   93.306358   98.197472
H   15.018894   14.455297   89.157944
H   38.604710   48.013863   25.443199
H   35.078457   73.745003   62.436066
H   82.051193   55.197140   65.271667
H   45.011177   24.596935   73.527786
H   99.864983   17.364712   60.748425
H   42.530891    3.813442   36.696404
H   97.786278   51.953289   99.166222
H   64.139473   98.379883   78.690781
H   63.366070   74.034958   17.286831
H   84.772881   51.183670   54.564026
H   66.088699   90.918938   38.608906
H   97.722473   37.027267   75.159363
H   88.441689   22.125467   73.776169
H   65.845718   69.939423   19.729420
H   65.310257   90.286453   19.396694
H   91.043434    3.369282    0.551642
H   79.982994   23.950813   54.962437
H   25.520214   93.649277   36.795448
H   50.985268    1.078835   77.390884
H   69.599648   87.652611   76.595490
H   94.860512   50.888603   76.451569
H   57.474289   50.305092   71.449097
H   43.679245   88.611153   83.592758
H   71.757210   50.511662   28.703232
H   37.581024   53.984821   56.200951
H   41.278965   64.620186   84.981728
H   38.147026   11.071015   85.200264
H   60.372944   55.605629   63.031269
H   61.585484   69.332184    9.395634
H   54.830284   94.907845   44.224495
H   30.992950   57.524124   66.375145
H   76.600433   46.964306   93.699608
H   23.073484   93.336639   74.017662
H   61.169720   68.561707   48.120651
H   51.762012   95.294418   34.771114
H   96.012199   15.872349   88.475334
H   21.197405   10.943955   65.400665
H   30.544701   65.155914   68.478027
H   76.178009   44.587673   67.198235
H   63.780895   73.689415   85.811813
H   52.116886   29.808846   19.727873
H   92.838730    0.125421   86.769180
H   58.892410   39.521362   94.627563
H   58.150303   67.061859   72.062622
H   23.555561   20.843473   31.844799
H   83.599586   15.952822   37.054504
H   26.948414   32.723633   52.930309
H   54.865707   36.577213   14.020122
H   19.270514   50.852844   59.967644
H   67.547089   90.660530   56.748344
H   24.005226   50.360165   65.669724
H   99.875015   26.781593   35.848660
H   45.959194    7.237391   85.594910
H   71.207581   10.711839   35.940239
H   31.411808   49.586895   58.769360
H   45.923199   59.106148   78.409439
H   65.967926   64.324600   84.146095
H   51.591644   91.824402   79.153900
H   14.090705   49.967339   23.696407
H   31.031181   66.260292    4.769802
H    5.514430    9.608078   70.340195
H   64.681587   11.453009   64.140709
H   65.988449   59.035500   92.408585
H   73.622017    0.491102   31.791319
H   27.840347   30.627285   85.204506
H   45.974449   89.717125   14.526497
H   60.779888   26.010490   92.899162
H   91.044853   69.814064   76.637650
H    8.199506   39.826843   86.091286
H   46.220367   97.210587    8.726452
H   69.906990   85.311592   40.467869
H   94.252388   63.077560   71.423523
H   57.378422   55.950535   71.097855
H   68.218346   16.897106   76.252205
H   44.152462   96.533310   19.185572
H   13.585091   27.682508   67.588211
H   27.643791   80.572426   41.918633
H   70.241241   35.182831   20.419523
H   76.370621   11.431220   23.716265
H   12.299596   97.202614   17.879072
H   16.499901   88.919739   34.924435
H    6.219168   12.806675   58.920128
H    3.554176   20.526049   91.816429
