100
TIME:    7.344, STEP:  7344
H   20.677473   48.540749   92.422379
H   97.654007    2.823352   41.168087
H    6.007490    2.261221   37.133549
H   82.709274   30.078465   37.613026
H   29.390398   61.411327   66.579254
H   14.131223   93.251793    6.046715
H   68.069595   57.240841   64.763519
H   42.662376   23.951488   33.892189
H   73.098335   80.197678   37.808170
H   74.168922   21.833956   95.265053
H   17.134033   61.744343   32.338562
H   75.542068   91.807556   70.175179
H   75.447182   17.463123   95.280327
H   91.450615   82.439613   16.121258
H   69.806221   14.030540   97.730499
H    6.236488   69.395874   23.424898
H   33.546394   67.718109   41.941647
H   58.115803   37.479858   44.945152
H   59.647091   86.442825   50.271214
H   94.658615   49.853268   16.346231
H   28.473343   25.098793   57.912014
H   66.456772   53.833252   93.868866
H   87.689217   34.893944   22.230036
H   36.694313   24.683809   61.645523
H   66.920723    3.743271   90.777016
H   12.979733    9.601082   99.779091
H   28.797235   37.195473   45.685757
H   12.876678   99.232811    9.525191
H   70.859001   15.397282   10.017675
H   82.595078    9.075691   67.215538
H    5.087013   80.606018   28.345100
H   29.461788   49.602764   19.393166
H   87.658455   31.159857   59.402473
H   88.402870    0.689024   62.360138
H   98.183632    3.626190   71.867569
H   11.039221   60.642456   96.337410
H   84.183975   35.583130   87.143890
H   60.449455   24.553020   40.686638
H   35.079853   21.403093   32.623764
H   71.470009   24.662374   15.844747
H   33.340652    8.175008   15.365986
H   81.301567   70.402649   54.883160
H   74.489716    7.542374   31.938541
H   10.405239   35.911278   98.793327
H   19.618557   42.134708   84.555733
H   83.327049    2.991916   12.997061
H   99.109665   24.230114   95.958946
H   56.635860   71.010803   22.982616
H   79.701912   24.220135   51.520088
H   79.928467   42.513813   70.040718
H   42.997318   60.627792   30.842461
H   62.047039   82.270309   91.948761
H   61.210682   64.591736   76.341469
H    6.624336   87.379074   55.886490
H   56.054855    2.197431   62.815067
H    2.742702    4.808548   42.619705
H   61.828144   77.638313   54.462990
H   79.206467   83.337013   24.391069
H   69.480766   49.077618   47.686592
H   74.389793   92.271881   54.729759
H   22.965864   37.041672   41.799553
H   38.265022   59.585159   63.063316
H   72.645638    6.141324   29.870331
H   47.339512   81.768951   27.749546
H   23.818001   74.291931   79.483543
H   50.193848   77.181389   80.418442
H   98.345154    2.264664   21.630754
H   73.065392   37.549126   17.288269
H   22.925537   22.093323   99.628784
H   79.177589   17.515375   86.267090
H   88.826683   95.716003   74.054939
H   68.506035    7.749845   94.358894
H   28.149050   55.047169   73.450745
H   68.535454   84.617432   66.798035
H   16.239225   39.128834   58.128696
H   99.271400   78.255028    1.772030
H   33.775105   90.158394   20.988100
H   77.014801   70.515205   20.020662
H   13.685651   31.947079   99.615562
H   39.367905    8.956740   88.229103
H   54.585823    5.259408   18.923737
H   92.384743   92.097610   72.604500
H   82.399803   29.935705   29.348557
H   55.404034   40.601437   92.656639
H   94.737930   89.510094   35.833855
H   82.269211   78.812561   51.772903
H   57.643940   69.383842   73.733589
H   74.140739   17.399328   19.432053
H    8.091558   85.270378   68.126350
H   17.030237    7.122433   86.747101
H   24.569477   69.985207   88.553635
H   21.680529   47.818100   73.456688
H   56.218021   47.876629   86.927376
H   57.034859   58.724815   21.993402
H   29.619873   91.898422   84.844147
H    0.505849    5.725883   88.121620
H   79.670311   89.136963   14.828549
H   24.101702   49.839672   31.451502
H   58.861809   68.515373   29.900326
H   95.376030   90.175339   90.269257
