100
TIME:    4.354, STEP:  4354
H   22.878841   22.737244   95.159805
H   80.228828   40.801117   52.640228
H   54.596001   87.148552   72.235695
H   82.207413   53.265800    1.504666
H   56.172668   21.749804   47.649277
H   60.507565   96.491081    9.936993
H   24.777607   55.341625   30.941477
H   77.670479   65.277191    8.423479
H   46.598305   67.674026   26.017801
H   55.856834   78.900352   78.188477
H   95.256561   41.435047   20.350510
H   89.659904   41.934044   83.006844
H   66.229385   98.294533   92.386719
H   39.496025   91.655617   88.581100
H   33.462807   81.110718   41.479740
H   26.459923   30.912407   71.621033
H   73.984322   69.952896   69.750145
H   94.177696   82.965538   48.594936
H   13.083389   61.011055   92.748627
H   75.212090   13.354067   12.773142
H    5.904175   22.762707   39.068504
H   79.802567   49.863983   48.494949
H   27.611855   59.211418    7.776446
H   14.507759   88.901062   83.707199
H   73.860260   40.865952   68.695107
H   26.698332   97.938690   80.987709
H   86.628716   61.488506   86.358437
H   65.162933   59.669708   10.690440
H    5.844224   44.120693   51.355934
H   67.944962   83.077995   29.518681
H   87.412544   12.487468   64.904320
H   40.671337   32.215378   96.192482
H   77.047829   49.922691   90.039658
H   62.068451   74.704651   88.324638
H   72.542404   29.791222   89.857010
H   51.123249   26.453083    5.739671
H   97.404587   45.083481   51.543446
H   84.033028   79.272377   29.691250
H   61.290951   86.551994   22.377172
H   53.094749    4.575919   80.598450
H   37.686203    5.581686   44.924053
H   40.308426    7.267066    7.356266
H   48.744389   89.609589   15.968134
H    1.327190   85.738434    6.446164
H   78.977928   60.102684   28.694574
H   21.915112   45.962696    0.847300
H   75.750290   61.623253   67.261589
H   56.471943   40.214752   37.978752
H   92.303207   71.850677   70.792938
H   17.194012   97.003517   79.139503
H   43.212437   49.293098   99.324692
H   16.728777   59.721478   88.229614
H   99.186653   47.254700   49.996395
H   75.862328   36.165947   23.945972
H   94.122620   40.162479   37.379810
H   99.014053    7.953737   44.406372
H   72.275528   63.913872   70.089058
H    1.847999   65.706078    1.405269
H   33.667267   22.736225   77.224800
H   71.698761   62.452206   39.772469
H   34.354797   76.089989   74.923134
H   44.382652   87.415665   98.348236
H   69.654549   10.173678   34.903618
H   42.021034   65.481262    8.926945
H    5.139268   13.096878    1.037723
H   33.871895   25.822456    3.626150
H   38.239334   98.892761   77.273117
H   79.605125   66.547134   74.348976
H   73.905960   36.935654   87.157166
H   18.598764   67.137695   92.564850
H   83.772850   99.153320    9.917862
H   14.960241    7.024140   75.402031
H   23.102736    2.941113   50.113533
H   34.361507   73.850700   44.453758
H   72.093880   34.846539   31.461241
H   28.588739   86.623497    2.961179
H   62.270897   49.171101   68.051582
H   36.539165   66.024483   54.896240
H   70.301521   40.729656   66.264580
H   85.996735   71.826805   45.820183
H   96.074387   74.325790   40.216839
H   68.011940   72.662491   22.698915
H   93.273445   79.934509   44.597057
H   49.697693   84.740059   65.745316
H   40.326126   76.540138   25.680832
H   51.086475   68.986153   44.138260
H   57.948540   86.781647   31.159147
H   26.039789   56.702431   50.463249
H   46.042099   51.748192   92.580696
H   81.386765   30.140282   79.861481
H    2.206217    8.535721   25.410318
H    0.448372   22.943893   16.490229
H   64.553352   58.159973   55.706036
H   68.059250   77.335800   20.386881
H   81.312141   59.725761   16.137371
H   53.544144   23.796455   42.559288
H   17.002460   17.547527   86.786209
H   22.847952   53.309387   86.363869
H    1.298741   55.618679   80.343987
H    9.655493   66.899971   78.305923
