100
TIME:    4.648, STEP:  4648
H    2.997575   95.776131   94.890640
H   72.109016   56.733444   71.178101
H   59.649574    8.300021   68.785896
H   82.256760   41.153374   85.390511
H   53.539337   45.315201   39.677505
H   55.947460   96.172569   39.053188
H    9.369272   75.193527   53.932659
H   54.562660   90.713287   81.430183
H   39.371223   39.407211    7.511326
H   47.822258   83.121758   89.699768
H   67.909393   53.264851   92.030685
H   78.440208   56.670830   62.079262
H   47.468582   80.516182   63.173340
H   24.939228   90.749428   10.954272
H   37.038216   54.849182   27.346703
H   14.637970    5.197937   47.216736
H   50.342659   89.400070   96.514122
H    0.462450   68.660423   38.402294
H   17.662560   73.343842    8.237993
H   67.289665    7.110559   32.790047
H   88.457817   93.493805   31.089874
H    7.988632   50.254272   23.458115
H   23.686531   56.820335   99.364517
H   87.191910   92.427124   61.873207
H   63.344879   17.549530   70.866371
H   25.358114   89.249146   53.340839
H   61.277611   49.266171   92.190346
H   40.357029   73.392639   20.409235
H   12.237454   70.794945   37.458046
H   79.218491   75.801567   52.891060
H   98.982155   38.850697   41.643974
H   59.234753   24.093323   68.975410
H   97.755592   28.412107   16.525503
H   74.490417   47.761230   75.938560
H   65.234573    7.566948    7.760009
H   76.680466   49.480152    4.814696
H   25.603018   34.316879   74.709579
H   71.880226   73.893562   50.437145
H   48.880199   80.145866   93.886871
H   25.404127   77.053520    3.728884
H   17.593838   15.668714   51.850567
H   13.885078   20.462240   21.167803
H   51.276783   91.372620   37.203857
H   82.552994   90.664154   35.191994
H   53.475468   48.503914   53.852680
H   18.122128   51.570301    2.042484
H   78.047165   77.611656   70.083336
H   56.487644   43.242859   56.169823
H    0.898337   47.501736   59.065369
H   23.360134    1.476881   58.575890
H   43.190006   20.909206    2.424141
H   31.015833   32.439358   68.930481
H    5.284846   48.959412   32.920116
H   69.052452   31.368080   36.919029
H   70.714233   65.928474   39.880802
H   99.381912    7.644478   34.397919
H   90.915207   55.430687   98.050819
H   79.955948   37.941704   93.832626
H   56.853592   35.159027   54.654381
H   52.297802   85.048767   31.410408
H   52.900269   62.416668   52.000420
H   33.948021   84.679153   85.046997
H   89.613136   90.111618   14.743156
H   62.210655   67.082794    0.943959
H   16.808764   89.615997   28.417414
H   15.811295   11.206964   21.009359
H   14.650679    9.056943   91.467087
H   59.296623   83.360977   88.403877
H   88.557510   15.810684   68.719360
H   24.555162   81.923828   91.945770
H   74.437309   79.149872    6.390807
H   90.718414   97.266693   96.926262
H    3.932636   88.397682   42.574669
H   27.888088   55.245853   26.984947
H   86.269905   35.265987   53.748135
H   35.539925    5.465455   83.177780
H   88.963242   23.688267   73.250954
H   50.351818   46.799603   71.132637
H   84.401283   39.866085   69.543907
H   71.578461   55.814823   20.491753
H    1.826149   77.367355   57.788830
H   90.070015   74.582535   98.114159
H   11.870173   84.850281   72.596527
H   69.923859    9.898243   38.893715
H   26.010561   58.150963   97.181038
H   44.319218   79.784157   64.554428
H   77.584129   65.405457   45.178162
H   30.771486   33.163948   47.405983
H   52.143173   35.378471   90.176155
H   55.393650   18.043556   90.372375
H   14.238029   24.410851   31.619059
H   22.203314   45.053558   22.092226
H   83.399391   66.982613   78.441513
H   96.474106   95.167984   40.209301
H   76.229408   33.390205   22.892292
H   77.827316   12.187407   27.373894
H   93.666283   34.419689   69.878159
H   23.926855   55.812622   81.657967
H   87.293213   56.885998   55.719116
H   27.916292   59.355762   49.984165
