100
TIME:    7.524, STEP:  7524
H    8.505096   32.033791   92.257584
H   92.682693   12.577586   52.518337
H    9.101625   15.210681   35.020054
H   82.739487   22.662006   27.746227
H   27.777468   75.839119   61.698578
H   11.339665   93.056786   23.872719
H   58.635868   69.395233   78.839752
H   28.514732   39.523235   17.364632
H   68.673592   62.891464   26.477482
H   69.252541   24.418489    2.312969
H    0.390884   68.987076   15.000090
H   68.672867    0.830051   57.362373
H   63.969215    6.568508   77.391838
H   82.537956   81.884804   29.819836
H   71.992500   97.952072   89.073273
H   98.998749   53.652466    8.482979
H   19.071907   79.624542   58.327755
H   61.965137   28.721008   38.706291
H   62.449978   93.993179   59.753788
H   89.808151   46.031399   28.601480
H   17.791885    7.178727   53.027218
H   83.713547   54.072205   78.540192
H   85.285957   33.430016   17.079508
H   19.969496   26.837130   48.276535
H   60.482735   89.468918   92.106361
H   12.131039    4.295372   82.840919
H   13.275614   29.712622   49.257687
H   97.688957    7.634574   15.475318
H   74.772881   31.727785    1.509322
H   89.497238    4.620392   81.525230
H   12.171477   96.747681   14.104073
H   40.827145   44.630077    2.729707
H    0.336700   17.990683   75.618294
H   96.008156   84.193062   54.776825
H   93.703957   89.997673   82.818192
H   26.685921   74.740662   95.771614
H    1.448918   28.991018    1.327213
H   53.010338   21.258495   53.388206
H   27.481434   17.481661   15.180885
H   54.516129    7.811240   30.006811
H   21.039324   14.350698   19.606657
H   66.132195   71.108521   64.071861
H   76.038788    8.622124   44.939487
H   98.911819   38.932518   16.392536
H    4.004925   35.033421   99.958565
H   81.003441    6.424603   13.728338
H    0.516226   34.019478   97.686546
H   56.646847   72.864746   34.120007
H   84.964363    9.313061   44.339149
H   83.707764   45.253529   57.455162
H   42.984959   43.250168   32.739929
H   70.794907   65.568344   80.132965
H   64.944313   65.635437   65.887978
H    2.456398   84.442978   63.829605
H   41.723190   17.972038   64.345978
H    2.966892    4.619205   36.492081
H   73.239929   72.444527   71.582436
H   65.803146   66.338417   19.754152
H   83.675102   56.684277   33.868538
H   62.511002    6.106962   49.610130
H   34.320782   28.671188   27.765892
H   31.876472   57.909744   54.918327
H   84.865181   93.858429   17.527191
H   59.700504   82.749481   22.862003
H   30.962547   59.915928   96.245934
H   39.136108   68.233025   91.061447
H   83.903625    8.487547   30.321627
H   60.631615   47.843315   25.893311
H   31.897247    9.159668   88.340332
H   82.833290   26.555750   85.885315
H   83.111046   83.468994   71.896126
H   53.683689    1.772940    7.552962
H   16.412218   46.144123   68.836487
H   64.572136   73.224609   56.102844
H   24.909498   39.393879   71.776459
H    3.526785   89.790672   89.659737
H   50.122761   74.579781   24.180315
H   85.471527   58.745487   29.961916
H   22.316877   31.418362    1.624178
H   30.540504   99.150993   72.721901
H   58.109688    7.121591   29.682098
H    5.892060   93.264908   57.545582
H   93.784386   32.945957   46.491348
H   67.787422   56.004269   76.215599
H   85.973587   78.249107   18.385355
H   78.127365   85.423584   64.272598
H   69.665733   56.296379   82.316658
H   77.035637    2.995565   17.565750
H   11.827596   75.248100   66.654182
H    1.115549   99.716324   93.182343
H   31.935810   79.705360   92.354904
H   34.998707   61.356003   76.887169
H   67.756409   53.277782    0.847052
H   74.431160   69.645226   34.130489
H   26.507309   75.775986   88.980499
H   15.373183   98.618103   78.824440
H   65.382591   99.466858    4.476338
H   23.754259   58.745464   27.837687
H   50.286980   69.292656   14.822964
H    6.556734   85.555588   72.930084
