100
TIME:    9.944, STEP:  9944
H   44.849518   10.109866   90.042007
H   25.846996   43.715611    5.105325
H   50.699070   89.315483    6.612015
H   83.145676   22.958139   95.097549
H    6.092516   69.812439   96.083992
H   73.818359   90.435020   63.534378
H   31.805447   32.804840   68.086929
H   38.307510   48.883656   95.168175
H    9.185371   30.216923   74.149010
H    3.150503   59.166111   97.068550
H   75.288300   66.359528   81.890099
H   76.307472   22.131168   85.104561
H    9.653755   60.090698   36.900627
H   62.714066   74.425697   13.982342
H    1.386019   81.785736   72.691673
H    1.695275   41.990402    7.601667
H   24.469795   39.688690   78.629898
H   13.713881   10.963814   54.817528
H    0.150936   95.514954   87.261948
H   24.607517   94.640839   93.366386
H   74.185165   66.262398   87.344696
H   15.721313   57.284790   72.454834
H   52.975098   13.753407   47.866440
H   95.116684   55.787323   68.547501
H   73.930161   97.550766    9.973717
H    0.717442   32.954391   55.107777
H    4.596352   29.116007   97.267502
H   93.496101   20.592014   95.466942
H   27.393948   51.289310   87.114273
H   82.290520   44.725632   73.908180
H    7.413709   13.753847   22.641464
H   93.627670   77.768097   78.698204
H   70.800453   40.931641   93.631004
H   98.259171   62.414421   52.826149
H   33.477211    6.769616   30.054197
H   37.051838   64.292603   88.164803
H   33.558250   40.364998   92.013748
H   52.986645   76.976601   24.161751
H   25.331989   64.753990   80.665169
H   26.580128   81.258972   20.407499
H   55.649307   97.386841   76.620811
H   62.187386   80.604202   87.608147
H   96.865204   23.141033   19.738445
H   44.394543   79.558876   53.003887
H   94.059113   39.521030    7.031536
H   49.772232   52.577404   23.559958
H   19.436489   65.631470   20.924627
H   56.794552   97.789978   83.855560
H   55.700821    8.891893   47.779755
H   34.507217   82.096550   88.248573
H   46.651966    9.902161   52.364883
H   88.407120   41.009781   21.274042
H   15.131216   79.667419   25.339962
H   46.408936   44.959892   70.617622
H   49.039040   30.049166   84.913910
H    5.980999    2.073601   54.109558
H   26.658577    2.616244    1.744513
H   85.605423   37.799294   57.420799
H   74.543678   58.942368   48.084530
H    2.818348   92.116577   80.779579
H   86.979309   16.129477   39.090725
H   45.985924   35.384720   45.421600
H   49.187695   28.769053   51.602310
H   25.876400   95.932159   57.162674
H   27.016655   66.633034   21.609957
H   90.474518   47.927849   34.151745
H   89.742348   92.152405   47.158886
H   93.465523   86.245003   41.583313
H   52.510902   35.273911   36.562702
H   31.982437   48.104641   80.752563
H    6.256166   18.805668   42.872078
H   54.402145   21.421288   84.936615
H   58.625153   26.439318    6.783199
H   11.305798   20.064919   12.315145
H   41.482643   42.957264   55.262333
H   60.743202   44.890301   26.824619
H   69.910103   65.122849   67.104088
H   99.159233    0.516144   63.621658
H   38.363930   24.310055   28.633295
H   11.862758   67.322395   64.236763
H    5.485576   32.157604   74.322777
H   87.485466    8.967935   55.087982
H   46.853676   73.417152   76.959686
H   34.280613   63.088943   55.185883
H   68.141861   26.863281   83.795074
H   22.428768   74.315086   32.324879
H   31.292192   80.342033   97.711372
H   15.954416    9.348847   92.479828
H   62.051029   40.505821   46.861702
H   87.155731    0.151262   79.689697
H   30.972769   10.377795   43.461205
H   14.054201   43.362991   22.999178
H   22.882938   25.884085   87.989372
H    4.477666   16.173512    3.197266
H   84.664413   59.007607   44.587471
H   15.255263    3.055198   53.828430
H   73.294456   38.343369   65.299484
H   19.083086   78.489014   79.248009
H   35.003654   79.742790   12.122799
H   56.870323   23.456390   39.803074
