100
TIME:    0.611, STEP:   611
H   76.003090   65.989510   98.586624
H   84.274132   37.872555   16.541838
H   90.262268   17.861801   16.165726
H   81.579163    7.476297    6.671628
H   89.698380   21.731865   49.138161
H   18.541714    0.548651   39.254955
H   20.948402    2.594311   38.233768
H   71.862900   41.460865   52.094734
H   38.608452   27.548340   61.628151
H   58.142906   25.158230   31.616243
H   43.421295   90.827576   80.894508
H   32.520359   54.316917   49.437111
H    4.397289   24.741211   64.399559
H   24.828587    3.193414    3.736525
H   87.933678   15.447013   21.401739
H   76.956955   58.295589   82.321762
H   74.943062   22.403397   28.984831
H   14.200974   64.987717   78.364059
H   54.778542    3.983897   95.553513
H   76.110176   92.721527   57.871681
H   28.018936   95.389862   40.659721
H   20.934620   44.906387   67.231026
H   77.586296   89.652992   14.868214
H   62.273010   44.009739   61.697823
H    7.731428   37.717617   41.070572
H   43.857388    9.404147   31.904566
H    9.391165   17.078102   12.090742
H   80.986290   84.958603   86.970383
H   24.456848    4.526948   28.289425
H   24.421556   75.717545   31.960842
H   40.136753   76.834160   61.062401
H    4.336202   35.630402   42.700737
H   13.395433   23.778345   52.840660
H    3.918043   17.728058   46.010353
H   65.584465   12.733361   61.932709
H   25.679409   32.483044   18.541967
H   38.401928   82.159523   56.609692
H   38.736382   47.771168   65.556694
H   23.251564   67.464943   83.565430
H    5.644428   54.984089   86.106499
H   93.487122   77.145103   56.737072
H   76.707970   39.280182   31.505835
H   16.503736   67.163925   45.605957
H   40.342468   23.011034   40.472542
H    3.656134    7.785089    8.392164
H   70.147987   74.690239   85.714333
H   42.531666   58.702251   32.844185
H   56.272045    1.674176    6.383126
H   82.889946   81.846054   20.100557
H   38.704411   40.049206   40.930267
H   43.498005   10.655291   59.859165
H   34.825630    7.042367   33.951080
H   21.553598   25.551514   67.385445
H   62.540241   97.233452   58.778095
H   92.117645   12.067972    5.590813
H   94.330734   11.889812   71.826920
H   34.986267   71.916771   14.098740
H   80.562439   19.185646   97.816605
H   38.464867   64.584824   64.577881
H   18.699516   74.751877   46.231285
H   98.242599   50.155701   66.756226
H   77.225555   22.258255   67.710739
H   15.676355   65.487938   91.640968
H   84.995796   45.118172   10.550566
H   56.575272   12.044189   52.462975
H   63.810646   11.898457   82.312950
H   38.547356   69.484497   96.560715
H   38.159935   52.481125   95.411934
H   87.354179    5.883751   21.911121
H   42.763428   78.875633    0.445923
H    2.629489   53.831234   54.819431
H   23.587603   31.247734    1.355646
H   67.153442   88.084267   46.082241
H   16.742363   10.713911   66.895058
H   91.630905   29.513079   47.716114
H   40.103809   46.732468   54.816212
H   22.429459   73.587761    1.845631
H   60.686218   10.768562   48.184246
H   90.838814   51.712742   24.501324
H   69.560928   75.678917   68.282990
H   22.838642   35.602734   16.506798
H   87.167015   48.217850   35.687172
H   56.455051   17.455503   88.094666
H   92.200592   64.445656    7.622017
H   22.579035   10.664691   88.522942
H   37.230152   31.496899   84.212868
H    7.962042   58.928246   52.677959
H   65.791061   56.375816   89.388756
H   68.362740   60.152534   23.201580
H   12.315563   84.144287   46.055141
H   49.027195    6.424479   46.364941
H   23.494768   41.458778   45.165115
H   24.486507   45.937874   66.183434
H    6.282649   50.295067   68.014015
H   46.028553   94.999359   30.125885
H   44.387695   71.603447   35.890129
H   14.104261    2.744568    2.049630
H    9.108541   21.439972   46.259773
H   79.605492   39.484074   93.871559
H   77.186630   63.011219   38.838242
