100
TIME:    2.501, STEP:  2501
H   48.189606   92.666954   96.856277
H   31.700432   40.345154   35.762257
H   22.744734   53.835785   93.978813
H   81.896393   29.609785    3.074087
H   72.769821   73.223694   97.893127
H   89.236214   98.498573   26.428007
H   21.893417   30.217079   86.034309
H   23.312630    4.970924   78.560814
H   92.148582   45.832489   42.658215
H    6.495619   52.294014    5.624702
H   67.618103   66.875702   98.840836
H   60.386559   49.052795   14.905207
H   84.173500   10.393476   76.549461
H   31.246284   97.367073   47.567959
H   10.921391   46.627625   30.551035
H    0.963928   92.982391   25.436968
H   22.990768   47.392128    1.063559
H   54.589989   73.076958   12.839489
H   84.218758   83.273438   95.125809
H   25.137794   52.701435   86.612373
H   15.863739    7.234303   89.361893
H    2.153656   47.404099    6.295002
H   52.352074   74.281746   60.793884
H   86.671494   66.677277   21.327477
H   40.133171   87.821686   55.014534
H   35.191235   53.085773   54.752396
H   46.415092   38.513523   49.596004
H   21.515074   73.177940   49.442585
H   65.552582   76.002357   38.947990
H   96.893486   28.940506   82.211143
H   14.485574   46.324230   11.508425
H   23.671700   83.411781   67.733971
H   46.525051   85.497520   23.106787
H   83.774086   44.520981   66.387878
H   18.603497   69.863678   77.021339
H   90.006332   80.951530   12.042493
H   19.677788   12.943670    5.534369
H   60.618279   13.178654   98.930992
H   39.505363   26.923315    1.947111
H   27.627520   78.048393   34.807446
H   64.323891   41.998272    1.267279
H    6.845569   24.103798   20.300329
H   32.783413   78.497696   82.122978
H   19.653318   54.688751   25.268835
H   39.712353   33.214191   70.128273
H   45.821232   10.619526   93.324959
H   61.271069   60.850677   49.465363
H   56.372982   21.133467   23.325600
H   38.135948   25.316761   44.708786
H   78.338554   68.813805    8.742199
H   43.353809   28.188425   79.786987
H   26.676111   31.664700    9.875072
H   60.760368   36.510376   57.616615
H   18.776890   66.404442   42.178070
H   41.656075   77.756577   21.627699
H   96.695541    9.903519    7.486862
H   54.803165   17.382011   93.853264
H   39.826996   40.699280   49.136185
H   87.525597   44.442532   19.479734
H   93.979187   20.022810   92.476204
H   17.465528   62.261951   19.398617
H   10.148132    4.664074   82.192490
H   43.874287   36.604271   61.979904
H   14.778131   55.399315   59.241482
H   31.590405   61.094357   28.474112
H   47.704781   17.940773   94.063988
H   86.908302   34.829098   87.810074
H    7.604603   60.572144   85.764862
H   81.552025   70.080421    3.373167
H   81.053772   73.937080   96.466736
H   42.615044   25.231821   32.148762
H   67.747314   68.521744   39.733253
H   43.922134   94.597740   97.618889
H   75.151878   91.111115   54.566689
H   82.754417   32.202869   90.990341
H   84.783302   67.864616   27.644371
H   94.029358    9.776461   35.281391
H   49.481853   87.186562   52.561985
H   81.444321   46.172504   45.583305
H   76.871559   72.745377    5.457854
H   59.824802   55.155651   29.467205
H   28.976357   60.560989   77.645241
H   76.039963   49.002167   68.107788
H   22.216183   26.175386   34.991089
H   30.552055   92.444809    5.308576
H   93.728760    0.919439   15.460416
H   34.190865   21.509857   42.800705
H   96.216324    5.058413   69.736549
H    7.584980   54.920296    7.738503
H   45.216747    6.375893   13.623158
H   26.373871    8.479032   86.278275
H   63.339687   83.598930   81.177620
H   45.752644    2.572827   12.399218
H   88.958748   64.938393   95.448509
H   13.349724   25.705139   73.557274
H    0.493901   96.970161   38.269180
H   64.084702   11.207690   93.354530
H   16.047926   37.532196   16.018154
H   89.571709   47.631123   35.553177
H   94.561844   14.463066   56.803741
