100
TIME:    6.938, STEP:  6938
H   48.133377   85.773109   92.794083
H    8.866058   80.824318   15.567962
H   99.027985   73.051582   41.900654
H   82.641129   46.805328   59.868809
H   33.028015   28.868635   77.587891
H   20.428280   93.691643   65.840469
H   89.349655   29.824566   33.013790
H   74.573174   88.827271   71.170418
H   83.078590   19.233109   63.365925
H   85.258095   16.004396   79.368507
H   54.899170   45.407948   71.445518
H   91.035934   71.456757   99.075172
H    1.338544   42.033749   35.626884
H   11.553139   83.691017   85.224861
H   64.874947   50.296471   17.254772
H   22.562000    4.906107   57.126465
H   66.194405   40.865154    4.981865
H   49.433414   57.235931   59.017250
H   53.325024   69.412582   28.882740
H    5.597527   58.473705   88.703941
H   52.565964   65.518402   68.931328
H   27.533157   53.294281   28.443466
H   93.109901   38.195915   33.847092
H   74.418327   19.826876   91.797165
H   81.441963   35.942139   87.778603
H   14.894009   21.568405   37.986168
H   63.808521   54.073936   37.629070
H   47.133102   80.282097   96.105026
H   62.031029   78.561745   29.208448
H   67.026871   19.124626   34.939232
H   89.109230   44.199287   60.466530
H    3.826901   60.818935   56.978645
H   59.061481   60.865166   22.826788
H   71.248726   37.896347   79.464722
H    8.288136   34.366066   47.165718
H   75.746239   28.843018   97.613594
H   45.243271   50.451294   55.152561
H   77.231239   31.984005   12.037543
H   52.218510   30.248102   71.968643
H    9.711746   62.671917   83.902206
H   61.088364   94.243935    5.801574
H   15.517262   68.810516   34.157558
H   70.995697    5.106937    2.613831
H   36.328671   29.096701   59.095711
H   54.834969   58.152058   49.813786
H   88.568077   95.248581   11.347624
H   95.937790    2.149429   92.062248
H   56.611080   66.829132   97.862076
H   67.832161   57.843868   67.716385
H   71.404053   36.334232   98.426521
H   43.025196   99.823990   26.563217
H   42.314297   19.944023   18.599953
H   52.788486   62.237610   99.919899
H   16.025352   94.001602   37.970352
H   88.380722   66.619011   59.361317
H    2.237030    5.235620   56.440903
H   36.090733   89.353188   15.849125
H    9.438153   21.679094   34.849472
H   37.462090   31.920376   78.853981
H    1.183363   61.067028   66.277367
H   97.354546   55.921143   73.454178
H   52.674751   63.364151   81.431854
H   45.081654   33.846840   57.710968
H   19.459305   79.557312   38.773670
H    7.703071    6.717323   41.675037
H   75.135193   97.364922   56.412552
H   30.920221   88.226959    2.028109
H    1.110497   14.328834   97.879120
H    2.689766   51.265900   25.093105
H   70.945518   97.102470   87.123688
H    1.718765   23.340256   78.924263
H    1.922891   21.252384   64.602303
H   54.620804   75.126770   83.858459
H   77.474937   10.313843   90.921631
H   96.680534   38.533123   27.345898
H   89.675240   52.234341   29.090403
H   96.900970   25.298977   13.787882
H   57.940182   97.061073   97.598396
H   94.216301   33.139629   95.086967
H   59.278854   31.074436   23.206169
H   46.638985    1.058700   94.657532
H   61.917610   89.464706    6.571699
H   56.720367   23.145910   90.683090
H   27.473316    5.858557   29.738087
H   14.506392   14.908475   75.191124
H   91.611374   63.901009   23.579147
H   30.528124   98.903343   54.374001
H   67.611137   49.888668   23.641602
H   99.665146    7.875879   71.446907
H   52.926914   23.827435   72.232056
H    7.954303   48.063110   79.979660
H   91.640640   17.283356   65.719048
H   30.192539   35.694027   55.530769
H   17.797832   34.093224   94.617737
H   36.639412   28.265800   75.514374
H   66.971939   21.757612    9.092258
H   11.896765   65.837311   38.178864
H   24.885378   29.751991   39.601219
H   78.202812   66.762169   63.908154
H   70.155907    0.595330   29.380795
