100
TIME:    5.243, STEP:  5243
H   62.759682   41.211464   94.345901
H   55.676064   88.973923    8.693057
H   69.879654   51.106155   61.802731
H   82.356628   16.638706   52.777252
H   48.209976   93.007080   23.545349
H   46.718678   95.527962   97.977684
H   78.183861   15.369421    0.462436
H    7.796837   42.187672   26.798870
H   24.744987   82.200256   70.059853
H   31.561869   91.665077   12.998800
H   12.563934   77.206116   34.717411
H   55.732025   86.495277   19.726480
H    9.500290   44.536186    4.050987
H   95.479271   88.915474   56.235680
H   44.274162    1.701893   98.745239
H   90.713608   53.157120   97.825897
H    2.496173   28.754574   50.679321
H   13.185765   39.711369   17.776419
H   26.929928   98.301956   39.583172
H   51.259796   94.473915   73.300453
H   53.149666   34.260262   14.940639
H   65.031860   51.044144   72.788406
H   15.742387   51.981239   82.341431
H   31.907372   99.549774   17.682011
H   42.063751   70.364380   75.260597
H   22.645769   71.663162   97.390182
H    9.968733   24.531178    3.994361
H   90.152840    1.165228   40.078842
H   25.175331   24.777834    9.333199
H    2.033842   61.075462    0.192537
H   22.399750   92.205719   94.569466
H   96.803566    7.655265   13.893242
H   39.667156   84.879784   70.127800
H   99.630112   93.233147   50.871498
H   50.444916   62.589493   43.989677
H   28.402338   96.082558    2.943007
H   82.670685   12.525299   21.593060
H   47.288357   63.007450   92.425957
H   23.763203   67.181084   36.226273
H   69.360634   21.350937   50.543270
H   76.929962   36.082802   65.868507
H   60.409508   47.167076   49.117443
H   56.401867   94.940659   80.180916
H   44.559788    0.646320   93.369064
H    1.864684   25.030212    4.767810
H   10.445028   62.919025    4.461235
H   82.695602    9.969724   75.794014
H   56.519421   49.371170   92.985085
H   18.289345   98.225342   35.328377
H   35.839191   10.533163   16.962387
H   43.144611   63.465698    8.696582
H   59.932304   77.228653   29.868744
H   17.626858   52.409424   98.363274
H   55.273438   21.658112   63.175438
H   23.339703   18.076162   44.942333
H    0.125839    7.018596   14.142715
H   28.635399   38.262337   54.640404
H   35.650528   81.750847   78.507309
H    3.781790   60.298721    8.974640
H   13.035669   30.782558   14.487190
H   90.432770   34.748478    5.611119
H   12.832376   79.140976   58.126831
H   30.007227   49.510422   73.942200
H    3.066471   70.323990   84.792191
H   40.426270   42.094524   83.826576
H   79.260277   81.628075   56.190407
H   66.912781   29.627258   20.194454
H   18.196083   17.390051   16.848318
H   18.211752   73.057793   31.400787
H   36.608910   11.849348   90.692871
H   55.543953   38.666702   99.253090
H   41.657677   77.519913   40.489784
H   65.137955   58.964409   27.317444
H   14.791142   17.589916   91.632744
H   14.957864   36.114872   98.852509
H   49.607803   43.600166   43.141850
H   42.985500   72.118599   83.773491
H   78.306000    7.893042    3.989910
H   12.934857   38.118382   76.180641
H   42.399185   23.407166   69.232117
H   13.469105   83.522903   93.351189
H   34.714500   78.468338   48.361351
H   49.507080   94.800842   29.260466
H   10.860376   60.814011   84.549927
H   97.038002   20.931686   39.502281
H   30.623577    1.637431    5.872998
H   17.322851   22.144119   73.549973
H   40.349518   85.527725   41.218658
H   64.490585    2.250858   85.309822
H    2.786486   93.563278   11.642767
H   38.587852   56.537357   44.184368
H   66.227806   89.803314   33.427597
H   21.539721   84.837074   24.453815
H   53.983253   31.259840   80.326622
H   65.942924   80.093834   36.563725
H   26.971924   88.691742   96.640961
H   46.437431   68.565727   35.659485
H   26.110350   60.878693   72.134117
H   58.948639   59.450809    5.880058
H   64.872391   44.089458   92.665558
