100
TIME:    1.787, STEP:  1787
H   96.475250   58.144302   97.509964
H   51.561607    1.632596   90.723717
H   10.471769    2.468471    2.358010
H   81.776550   59.025902   42.211926
H   79.165054   15.993443   17.251839
H    0.305396   99.272102   55.718960
H   59.312260   82.004631   30.198586
H   79.431618   43.199741   44.118011
H    9.700127   14.480743   87.601753
H   26.005438   42.042030   77.667717
H   34.032639   38.146183   67.615738
H   87.635117   13.263565   65.728416
H   29.591675   53.591438   47.515358
H   66.599831   99.567818   93.230965
H    2.235913   10.405333   64.874771
H   29.673630   55.432838   84.704849
H   80.395340    0.174149   36.056831
H   39.331856    7.798800   37.594528
H   73.095192   53.321754   57.507092
H   44.372520   67.862900   37.999886
H   58.233521   78.316162    8.742451
H   33.697147   46.458572   67.096169
H   61.885002   80.088661   81.221588
H   53.009865   58.113987   74.356735
H   65.670525   44.448456   49.746910
H   38.465115   74.360474   21.677099
H    7.983395   68.195572   35.427349
H   81.759811   39.850826   25.840616
H   50.027527   11.222798   72.700005
H   69.514915   46.611832   25.449680
H   86.397255   82.294296   68.004547
H   78.589508    3.141461   33.832512
H   96.231033   37.736397   58.784027
H   53.606453    9.954815   96.468353
H   36.353142   23.836800   33.544106
H   27.927719   24.861769   14.496541
H   51.195114   39.093117   49.273869
H   90.131599   26.246937   48.544331
H   70.385025   42.360817   70.852219
H   94.878197   44.890522   78.632156
H   13.120125   17.499758   84.445480
H   71.015808   92.058678   86.756439
H   26.633314   74.216049   30.550568
H   65.247215   42.720840   55.456768
H    1.646932   61.382633    9.028315
H   55.032764   97.001076   90.426949
H   54.949146   22.138933   42.893013
H   56.334850   13.782217   79.147377
H   17.267004   84.450035   73.191422
H   63.368900   57.948681   58.678402
H   43.408283   97.119820   72.258698
H   91.978340   97.918472   56.749844
H   45.948921   32.370361   99.082970
H   35.309711   78.050957   10.672224
H   98.496262   15.162573   15.570107
H   95.802170   10.653896   31.793106
H    9.540625   37.984032   25.946127
H   92.993500    8.127292   67.526566
H   31.213676   14.273376   74.295151
H   41.094707   65.143845   12.783259
H   72.425949   95.468941   75.066551
H   35.487030   11.311249   14.497500
H   95.443451   85.293022   10.963094
H   65.750732   51.515327   78.624626
H    3.250264   18.119045   61.981968
H   91.567146   53.435951   51.846737
H   44.194534   10.144895   53.339001
H   56.925484   19.737709   51.631535
H   45.966927   21.383896   48.155762
H   66.585510   38.023964   97.970215
H   65.287071   73.813194   40.715183
H   26.621084   92.217880   87.457573
H   90.475510   29.913990   15.926785
H   90.862144   36.294556   97.001839
H   48.329407   31.186388   36.865093
H   67.907295   22.102160   75.686455
H   29.202639   71.662582   22.652330
H   15.936839   33.872849   13.128444
H   47.209328   48.267429   37.616066
H   11.887672   11.629671   66.969551
H   45.852253   47.768993   86.793770
H   75.404205   55.898026   37.350052
H   30.866230   37.083282    0.102904
H   73.100410   65.077492    0.207217
H   65.317398   37.106567   74.522873
H   10.161121   74.695610   65.877953
H   86.504402   73.423462    8.754240
H   84.722336   62.223038   77.166786
H   92.767036   94.675331   13.579494
H    8.343218   35.753654   88.098717
H   97.153908   69.923126   71.199905
H   10.507048   29.904902   67.570045
H   99.941994   81.175949   57.162399
H   19.947765   21.626986   47.306389
H   25.696228   89.660736   57.149742
H   41.520477   25.164167   75.147995
H   20.758705   70.232780   34.417374
H   13.426396   31.452911   27.444050
H   23.583950   44.553349   95.362900
H   50.220108   32.801929   25.572323
