100
TIME:    3.800, STEP:  3800
H   60.343658   73.541992   95.667007
H   95.565605   10.773981   17.702497
H   45.073280   47.290916   78.736336
H   82.114426   76.089897   31.871695
H   61.134796   77.344261   62.670914
H   69.097908   97.091270   55.073372
H   53.811230   17.931240   87.617882
H   21.213791   17.350704   59.291470
H   60.216682   20.939011   60.891811
H   70.996819   70.945732   56.495667
H   46.788284   19.143513   73.713631
H   10.803909   14.164799   22.440691
H    1.545059   31.802246   47.439590
H   66.927208   93.363197   46.422390
H   26.723816   30.595688   68.111427
H   48.735077   79.367119   17.608080
H   18.533882   33.311085   19.317343
H   82.342979    9.906659   67.804382
H    4.454830   37.768517   63.559208
H   90.140739   25.119043   75.054314
H   38.779327   77.915649   54.102821
H   26.690048   49.128540   95.673203
H   35.008553   63.717064   23.628078
H   65.980324   82.256714   24.851971
H   93.674957   84.800339   64.603676
H   29.232672   14.382792   32.996918
H   34.400349   84.515945   75.369057
H   11.909251   33.810852   92.378593
H   93.797745   93.857986   77.544472
H   46.701645   96.789360   85.477966
H   65.611305   62.807911    8.735039
H    5.691574   47.520203   47.479012
H   38.024265   90.456596   40.130966
H   38.661072   25.475319   11.663479
H   86.312943   71.669212   56.120598
H    2.956600   82.995636    7.569941
H   44.268280   65.371567    7.890445
H    6.932229   89.407967   90.597298
H   84.673462   98.623405   76.064140
H    5.276272   56.440681   37.010258
H   75.548843   86.571182   31.872053
H   90.098770   82.404633   81.328751
H   43.972462   86.287415   75.951042
H   36.702789   76.456635   52.277283
H   27.034140   81.962341   81.286804
H   29.062435   35.395985   98.597389
H   71.422165   31.495411   61.942787
H   56.442356   34.508728    3.700404
H   76.106552   17.733994   92.890045
H    5.574855   88.575508   17.887875
H   43.254704    2.777659   93.483414
H   89.806107   11.127308   24.598774
H   87.698524   44.042419   82.171761
H   88.694542   45.206825   99.500885
H   38.232010   91.609802   32.667057
H   98.320877    8.536978   63.265839
H   37.155010   79.899193   17.399206
H   43.100090   18.024460   15.675661
H   89.975044   99.327347   19.754688
H    8.258862   19.868361   55.529549
H   99.407112    1.855630   18.118458
H   64.045189   92.572220   23.415886
H   32.041920   47.978203   72.893059
H    3.978149   62.465561   23.969715
H   83.151451   57.345135   49.446766
H   67.905159   53.363533   70.869461
H   82.687149   79.737427   50.526653
H   17.873970   34.863907   47.864574
H   46.294548   76.742569   21.902721
H    7.374804   39.271637   93.731415
H    1.364393   36.848244   16.564323
H   60.638786   25.410706   34.839725
H   59.224503   30.342709   64.319328
H   46.559719    8.907482   77.371178
H   45.384182   34.056149   89.463417
H   15.490285   51.117813   40.237652
H   11.969965   97.187546   58.254124
H   10.511241    2.247322   24.299273
H   43.735809   42.356930   60.082489
H   13.166218    1.997030   93.547905
H   85.237167   68.594406    7.106297
H   26.442902   69.044449   69.023804
H   58.225079   70.686523   91.831207
H   11.584547   37.333565   16.346085
H   67.300827   11.191549   79.385086
H   63.838383   48.635704    5.666694
H   20.948141   27.061974    4.741983
H   17.123598    1.057226   56.224220
H   34.545517   82.594536   97.111702
H   30.367224   52.934792   60.056076
H   79.534241   78.619957   13.710855
H   59.457481   81.283745    5.933449
H   29.040924   41.536423   12.864359
H   14.511728   43.731110   83.032707
H   90.889809    9.348125    3.407664
H    7.786053   45.672981   71.173943
H   60.976166   85.754936   18.647665
H   20.814917   48.592407   95.231453
H   27.690025   53.230602   26.746964
H   75.242836   81.118538   31.673613
