100
TIME:    7.701, STEP:  7701
H   96.535393   15.802619   92.095535
H   87.794235   22.169376   63.679417
H   12.144083   27.944305   32.941784
H   82.769196   15.369156   18.044258
H   26.191420   90.026451   56.899246
H    8.594634   92.865028   41.401985
H   49.359951   81.346298   92.681381
H   14.602882   54.835453    1.112844
H   64.322594   45.873688   15.335983
H   64.418098   26.959948    9.243793
H   83.926773   76.109100   97.950516
H   61.917732    9.701866   44.763115
H   52.682549   95.855042   59.801815
H   73.773842   81.339241   43.290104
H   74.142342   82.141556   80.560333
H   91.882126   38.171448   93.790314
H    4.838396   91.332535   74.440765
H   65.749695   20.108139   32.571411
H   65.206741    1.417922   69.079056
H   85.038528   42.273228   40.652473
H    7.288452   89.558167   48.223835
H    0.682709   54.307175   63.466995
H   82.922752   31.990492   12.015088
H    3.523612   28.954561   35.130363
H   54.152046   75.432831   93.413551
H   11.296490   99.077988   66.185051
H   98.012756   22.354952   52.770084
H   82.753502   15.896338   21.325968
H   78.621529   47.786762   93.142326
H   96.284363    0.239351   95.596428
H   19.137716   12.619579    0.100472
H   52.003078   39.740269   86.343941
H   12.804630    5.040956   91.563850
H    3.486851   67.972023   47.319901
H   89.298943   76.596275   93.586304
H   42.072178   88.603897   95.215248
H   18.425442   22.508410   15.273850
H   45.695206   18.018879   65.878288
H   20.009655   13.625586   98.028603
H   37.845406   91.241318   43.933418
H    8.943090   20.423460   23.776701
H   51.215645   71.802628   73.108757
H   77.562042    9.683878   57.723751
H   87.608948   41.903404   33.698559
H   88.651024   28.050488   15.105354
H   78.718559    9.800014   14.447428
H    1.899882   43.645149   99.385353
H   56.657650   74.687790   45.071774
H   90.139107   94.653877   37.277893
H   87.424072   47.947582   45.078720
H   42.972805   26.161940   34.606186
H   79.396973   49.143520   68.514099
H   68.614708   66.661743   55.608711
H   98.357391   81.555817   71.640335
H   27.630177   33.483505   65.850327
H    3.187345    4.433019   30.466583
H   84.461777   67.337303   88.416557
H   52.623215   49.623131   15.194577
H   97.635216   64.164131   20.280201
H   50.831367   19.712246   44.575829
H   45.485912   20.439808   13.966075
H   25.594398   56.262253   46.909088
H   96.881065   81.780426    5.389771
H   71.854607   83.713669   18.055920
H   37.988594   45.778561   12.729468
H   28.262897   59.433800    1.527113
H   69.702789   14.606560   38.867107
H   48.405067   57.965935   34.354935
H   40.719429   96.441597   77.240021
H   86.428062   35.445454   85.509903
H   77.490669   71.426102   69.773293
H   39.108791   95.895897   20.526743
H    4.871000   37.389462   64.299133
H   60.676029   62.021908   45.585907
H   33.435379   39.654507   85.196762
H    7.711504    1.134137   77.749184
H   66.197960   59.260391   27.319326
H   93.787308   47.172344   39.737484
H   30.804159   30.898457    3.599487
H   21.860790   89.509117   57.473152
H   61.574821    8.952737   40.261154
H   19.173717   94.412750   42.738415
H    4.979752   35.906040   63.348427
H   79.965355   71.150391   60.048908
H   77.355316   67.175804    1.227523
H   74.054550   91.924423   76.563965
H   81.487160   43.427040   90.756676
H   79.882286   88.832397   15.730553
H   15.501367   65.392860   65.206551
H   85.467010   92.434952   99.510330
H   39.179371   89.263512   96.092819
H   48.094913   74.668274   80.260475
H   79.102493   58.588917   14.534732
H   91.538063   80.383629   46.065350
H   23.446621   59.921906   93.047913
H   29.992645   91.628418   69.682213
H   51.333000    9.624269   94.296852
H   23.412607   67.503365   24.284101
H   41.855064   70.056984   99.996910
H   17.550653   81.012833   55.879253
