100
TIME:    9.919, STEP:  9919
H   46.540192   12.402452   90.064896
H   26.537361   42.360821    3.528976
H   50.269344   87.516853    6.905508
H   83.141479   23.988203   96.467789
H    6.316534   67.808578   96.761864
H   74.205933   90.462105   61.058449
H   33.115620   31.116648   66.131897
H   40.272461   46.720913   97.463478
H    9.799919   32.620636   75.722572
H    3.833417   58.807148   96.089699
H   77.613739   65.353592   84.298317
H   77.261528   20.878136   86.884117
H   11.247965   61.603798   39.384949
H   63.951935   74.502754   12.079762
H    1.082322   84.018860   73.894066
H    2.700531   44.176987    9.676915
H   26.480141   38.035210   76.354050
H   13.179252   12.180273   55.684036
H   99.761459   94.466293   85.943970
H   25.281002   95.171844   91.664268
H   75.668701   68.751106   88.023331
H   13.324539   57.251602   74.583817
H   53.308884   13.958113   48.571968
H   97.439453   55.488251   70.404114
H   74.824326   99.533264    9.789181
H    0.835375   33.691391   57.460491
H    6.752132   30.155226   96.771591
H   95.605629   19.425098   94.640678
H   26.850353   49.021091   88.296066
H   81.331886   45.344376   71.920723
H    6.429756   11.512093   24.619385
H   92.049149   78.458939   81.012581
H   69.039589   42.760788   91.378807
H   97.202881   64.705528   53.879387
H   34.099388    8.662453   28.533087
H   34.878605   62.334354   88.243385
H   31.160488   41.280525   90.043839
H   54.019855   77.433983   22.397644
H   26.387325   65.298729   83.087883
H   28.934845   83.599289   18.440546
H   57.357910   96.528915   76.031822
H   64.294411   80.505783   86.332512
H   96.650055   22.991020   17.932758
H   45.990803   79.139259   50.559620
H   96.229675   40.510563    4.893565
H   50.094765   52.100567   23.458391
H   19.240986   64.271912   20.684587
H   56.793026   97.532486   82.308701
H   54.970306   10.960890   48.786835
H   33.982506   81.715843   89.996468
H   46.512730   12.305229   52.317963
H   87.192139   43.329689   22.915220
H   14.612656   79.522461   26.791931
H   46.987816   45.367874   69.514412
H   51.029549   27.858290   84.701431
H    5.949862    2.099898   54.960617
H   25.073761    3.337627   99.366783
H   87.466995   40.160210   58.064720
H   72.571861   57.885887   50.003895
H    4.468061   90.195114   81.490639
H   85.402313   17.292101   41.039845
H   46.873222   35.617416   46.552849
H   47.488438   30.471838   53.315109
H   24.159691   95.795975   57.841499
H   26.024357   68.629646   19.281752
H   92.010315   49.170677   32.673550
H   91.748116   91.287994   45.951916
H   95.192436   84.815254   40.388168
H   51.264832   37.070251   38.130733
H   31.474701   46.849033   80.805588
H    7.050123   20.506832   43.171913
H   56.460747   22.251366   83.104034
H   60.255173   27.675947    7.424259
H   11.856068   21.647160   13.800493
H   40.278343   42.920452   53.366810
H   60.152115   43.287937   28.506805
H   67.639595   67.286545   66.660820
H   97.984688    2.150754   62.240929
H   37.165161   24.383488   28.354250
H   13.088754   68.684242   66.390541
H    4.996198   31.898966   72.828560
H   85.609398    8.805619   57.179390
H   45.272293   72.999062   74.578934
H   32.560757   60.949661   57.469170
H   69.359131   28.427116   86.218552
H   23.004215   73.396889   30.588810
H   29.622499   82.159737   96.519279
H   15.552395   11.349322   92.738846
H   61.532230   41.897804   47.066170
H   89.365967    1.179893   78.795914
H   29.949667    9.027917   42.933250
H   12.204454   41.482727   22.522913
H   21.280384   25.133924   86.056084
H    2.202629   14.667375    1.294936
H   85.096619   61.247025   44.012978
H   13.190368    4.042382   55.119705
H   75.278862   36.908661   66.737244
H   19.131342   77.251907   79.750023
H   36.194603   79.634834   14.216877
H   55.317551   24.097927   42.211483
