100
TIME:    8.970, STEP:  8970
H   10.717841   99.430061   90.933731
H   52.746475   90.934708   43.692478
H   33.956959   19.241543   18.046181
H   82.982193   63.086540   48.487045
H   14.820261   91.742310   22.491817
H   88.918213   91.490227   67.075928
H   82.851952   67.036552   91.918846
H   14.861984   64.619797   84.598183
H   33.128151   23.863537   35.457462
H   29.757292   45.180912   58.932503
H   65.887482   27.168732   75.713097
H   13.480179   73.310402   54.434456
H   71.762497   19.046089   33.693718
H   10.941026   77.427834   39.861446
H   89.555611   68.788216   19.533943
H   40.859558   27.180077   88.452209
H    2.792900   75.265862   89.962837
H   92.882095   58.358727   88.582108
H   84.976776   54.657452   35.935795
H   50.846485   15.326056   27.051874
H   31.984200   63.226410   13.783461
H   22.342981   55.991791   55.399918
H   65.979774   21.674639   75.707901
H   85.615723   44.135468   40.884022
H    8.766322   74.795059    2.784116
H    5.312008   61.667892   46.765385
H   88.585899   69.606400   77.946823
H   75.678589   75.128983   63.275551
H    6.214732   62.920528   33.154503
H   44.942162   68.831894   96.478302
H   69.083382   26.413288   99.701248
H   32.128468    4.682160   68.866249
H    2.190865   12.194675    5.885396
H   57.106125   51.675690   93.860298
H   57.717232   80.515144   70.795807
H   52.384083   88.000946   91.226387
H   40.138710   76.033943   15.266091
H   93.245934   94.796211   55.428146
H   66.447441   85.977013   75.052872
H   18.320055   72.442604   43.775764
H   22.215345   63.962074   53.673794
H   44.271210   76.779022   37.895313
H   88.483002   17.296528   49.384655
H    6.580470   63.210251   57.772404
H   78.574310   77.990623   23.698763
H   62.338104   33.999828   19.602934
H   11.820703   12.657236   11.571796
H   56.735104   87.758087   23.589909
H   27.232529   89.555153   86.657166
H   14.064276   67.264214   56.351269
H   42.885670    3.647537   47.986298
H   41.071453   31.389221   85.211250
H   94.929573   74.019836   81.909500
H   68.963745   60.854866   27.636921
H   26.590446   44.693024   76.635742
H    4.767883    3.098154   87.266815
H   64.909470   30.721107    9.109120
H   58.131042   29.781717   82.507957
H   97.723167   17.783175   22.858274
H   67.090065   17.251736    8.482445
H   25.535292   61.422909   15.024889
H   80.555077   44.450577   89.490746
H   83.034332   95.185936   18.370636
H   58.994808   90.626404   83.604202
H   88.357803   44.425220   30.906118
H   50.307564   96.348442   76.560768
H   67.888565   58.476192    0.132926
H   60.746506   30.541904   95.020477
H    3.964366    5.259331   97.649109
H   12.201034   99.185440   82.818390
H   37.188984   85.080666   54.553658
H   34.609718   53.761131   13.543632
H   22.131088   74.616753   31.758892
H   32.744320   81.708168   70.186745
H   94.565643   41.523075   81.413132
H   37.714439   82.466179   92.362381
H   81.450027   49.424740   49.828278
H   53.400669   64.200157    9.828429
H   91.658058   27.171001   17.761698
H   59.628014   20.380953   48.147667
H   86.418068   22.081125   16.108086
H   14.398039    2.644915   36.573891
H   85.246605   57.128330   84.200523
H   67.269615   79.741432   44.146000
H   15.566696   87.793198   78.212799
H   44.848186   38.536819   64.687225
H   66.240868   51.160088   51.267433
H    0.291291   87.286415    2.572997
H   41.838627   94.737480   54.827766
H   73.270981   40.226807   44.871971
H   91.112022   57.782970   22.892113
H   41.988064   70.109192    4.443717
H   60.447788   96.658745   12.668452
H   14.181356   57.372425   31.630861
H    1.503396   46.252193   22.206835
H   34.806839   41.515930    4.136654
H   50.605736   82.448753   21.315475
H   20.963137   30.296421   98.806480
H   81.403008   75.536827   93.705376
H   96.373367   48.448215   33.631550
