100
TIME:    3.297, STEP:  3297
H   94.360016   19.669518   96.127518
H    9.557838   83.503204   85.973801
H   36.427200   11.103591   84.638542
H   82.029999   96.812859   59.444736
H   65.640121   37.026592   76.309692
H   76.895882   97.636208    5.258501
H   80.173958   83.966927   48.282631
H   60.748596   73.833725    5.473711
H   72.581383   69.300262   92.552269
H   84.743050   63.723396   36.797340
H   93.576126   98.904694   22.166086
H   30.003349   88.952393   58.244850
H   33.540497   62.234299   97.434380
H   91.833138   94.913582    8.142475
H   20.604786   75.526077   92.288216
H   68.959152   23.361542   59.361671
H   58.982033    0.042618   73.527267
H   71.597740   34.367668   85.242371
H   96.619820   16.665636   37.060680
H    3.694038   35.800282   40.807701
H   68.628067   27.990555   67.754166
H   78.466949   48.460800   38.508255
H   41.724327   67.807930   38.020142
H   12.714523   76.224030   62.210865
H   11.664895   24.690582   60.888893
H   31.540979   29.370378   80.142967
H   77.775360    5.423770   65.391335
H   54.349926   10.332504   75.754173
H   82.860626   48.221420    1.322061
H   27.414398    9.239179   45.490326
H   45.813511   17.704161   48.530800
H   73.931831   61.416100   94.044273
H    2.593069   27.257717   94.816750
H   17.407207   71.572395   32.852783
H   98.815796    9.692254   25.492828
H   59.215923   43.481861    9.306329
H   96.024483   83.791977   68.256035
H   27.720848   98.610497   55.100597
H    5.903874    9.581869   24.808237
H   52.652348    3.528686   97.435036
H    9.925486   69.309723   20.021589
H   35.305595   59.831245   57.696899
H   39.639828   83.271072   39.619358
H   68.823380   68.029297    3.097500
H   70.664452    1.810057   38.244442
H   35.551792   25.802021   96.555794
H   67.492477    4.139252   57.111267
H   56.415493   29.328978   72.577614
H   61.401604   59.390984   12.954755
H   95.027153   80.923363   53.067020
H   43.293079   51.339615   88.179871
H   65.360687   57.803001   57.621197
H   77.267967   41.125854   11.384235
H    0.345340   53.415421   77.304291
H   78.281052   47.525055   28.389769
H   97.691513    9.066565   80.389145
H    5.268188   94.412941   69.559563
H   80.554924   65.526657   28.633244
H   50.303413   78.074799   58.371700
H   41.450363   81.206558   69.836067
H   67.677956   25.247028   57.334743
H   81.897636   97.254074   46.176605
H   97.893257   82.301567    7.385300
H   69.439629   59.729362   37.627682
H   63.188175   97.517616    2.603993
H   98.805397   78.369240   41.128174
H   23.044228   62.345852   26.241957
H   52.619469    6.095673   23.818266
H   21.223602   12.884926   53.451511
H   97.183655   13.971727   94.790588
H   17.337463   71.071831   22.598927
H    2.114963   42.104202   98.012268
H   92.020508   55.221775   77.213615
H   57.634991   40.738861    7.258318
H   21.133619   33.338520   51.333164
H    3.598397   18.879038   74.082458
H   66.302132   40.784714   49.358601
H   86.879379   35.137600   96.519928
H   19.616583   43.834400   54.468102
H   37.834328   29.391651   36.881638
H   75.397598   63.390636   77.042908
H   88.701782   65.759476   11.084227
H   26.399984   62.289886   43.922794
H   76.977844   94.290131   62.285820
H   91.792297   42.655766   28.145149
H   75.412598   30.157921   70.736862
H   87.353889   63.634163   80.756943
H    9.028212   41.328476   61.454849
H   24.105835   10.600838    1.225994
H   74.839996   73.629105   42.076988
H   58.949432   51.459301    3.088397
H   22.237242   43.458420   96.347969
H   96.798813   26.443197   73.966515
H   65.896278   13.219650   49.117813
H   99.585777   54.405216   91.849144
H   66.240265   65.536324   97.154396
H    0.902378   56.888622   47.576271
H   18.969038   44.309662    3.281557
H   51.651909   51.062366   68.879372
H   43.999676   94.028175   80.129517
