100
TIME:    2.613, STEP:  2613
H   40.615387   82.395958   96.753738
H   28.584953   46.418030   42.827198
H   24.669905   61.893646   92.664604
H   81.915192   24.995100   96.935120
H   71.766647   82.200989   94.856262
H   87.499886   98.377235   37.519955
H   16.023483   37.780190   94.792854
H   14.509651   14.660191   68.277855
H   89.395409   35.064178   35.607800
H    3.435255   53.902168   10.010753
H   57.200134   71.382294   88.052017
H   56.111534   54.666809    6.933208
H   77.048744    3.617143   65.417137
H   25.700630   97.021858   56.091518
H   12.283878   36.623230   25.167307
H   96.460678   83.186493   16.139666
H   13.985337   54.799232   11.260049
H   56.983421   67.630424    8.956249
H   85.963631   87.971436    1.026796
H   22.120583   50.323383   94.237862
H    9.217499   96.084381   86.321609
H   12.891205   47.552780   96.757217
H   50.856712   73.370857   57.589539
H   76.265488   68.020538   13.009072
H   36.127312   78.938385   55.840828
H   34.677685   49.748981   44.254959
H   36.756767   33.857395   51.818539
H   12.064907   78.405724   53.145100
H   67.987885   86.163979   33.653557
H    1.188094   26.168533   91.114952
H   18.892511   56.367580    2.646705
H   30.743477   80.316811   57.365562
H   54.414577   77.302940   33.196632
H   88.506264   34.256821   61.669373
H   15.819148   61.397369   83.841896
H   99.744125   89.749382   11.657544
H   30.420036    8.841681   14.359351
H   55.989494   11.128727    6.834404
H   34.777458   24.483313   91.093414
H   17.078386   67.563774   43.619823
H   56.670170   45.840923    3.906531
H   96.779594   29.130775   25.561865
H   33.748135   79.169327   90.213310
H   12.501646   56.566071   36.219414
H   29.997541   28.795612   79.712257
H   44.376286   12.755756   93.779549
H   62.146923   66.941498   50.541168
H   56.378963   22.286604   30.255531
H   41.409508   16.041248   40.240646
H   80.686699   70.517662    0.908993
H   43.345264   17.375254   80.967896
H   32.118809   21.271938    2.522236
H   63.083733   37.159790   51.111366
H   16.183506   64.577538   47.120453
H   32.739449   87.574692   22.577894
H   96.835678    9.785812    3.674118
H   61.903141   14.150199    4.505438
H   31.487152   30.122299   46.251419
H   96.359337   49.174709   10.881407
H   86.587830   28.631819   89.290657
H   24.530897   57.053822   10.666430
H    6.173462    3.621380   77.125351
H   51.471577   28.966650   54.296310
H   22.468988   56.008568   56.200344
H   36.036289   52.148678   38.904755
H   40.824409   12.372902    0.686281
H   77.922462   38.700802   93.217300
H   99.867821   66.977417   91.119110
H   87.133568   62.032814   96.348915
H   83.323303   79.569893   96.230896
H   39.058647   17.611032   30.805027
H   58.512474   64.804703   47.933815
H   36.619644   89.057213   94.747795
H   72.687523   84.023956   47.910194
H   88.154808   32.362659   99.480576
H   87.430519   75.042351   20.108177
H    4.198018    0.068986   37.262104
H   54.743816   79.863564   58.747654
H   86.815659   45.843525   46.833427
H   71.378883   66.646011   95.809006
H   62.016575   56.314342   36.161137
H   37.380287   61.292435   68.280006
H   83.125412   50.871796   78.775269
H   29.921139   35.759369   24.761108
H   25.098259   85.439682   94.451485
H   91.151611    5.033424   23.238018
H   41.671089   13.366547   48.141281
H   98.019302   96.091476   68.571022
H    9.909449   48.684212    6.822166
H   35.314037    1.767616   17.626755
H   30.957367   14.526700   88.643509
H   71.626617   92.020805   83.312141
H   52.938923    5.928654   21.064106
H   99.783455   71.731606    3.000308
H   11.413017   15.672546   76.131004
H    9.744720   92.547310   32.484268
H   55.194565   17.635021   86.913368
H   16.458937   38.485809   14.226068
H   84.236259   48.113911   26.171707
H    1.517422   11.586205   46.016632
