100
TIME:    2.072, STEP:  2072
H   77.201569   32.008286   97.249039
H   43.633827   17.084921    8.701231
H   15.370642   22.971775   99.012703
H   81.824387   47.284264   26.589401
H   76.612335   38.837452    9.524733
H   95.886971   98.963341   83.943016
H   44.376461    1.247989   52.485954
H   57.031181   67.855347   17.949379
H    2.694257   87.078964   69.663139
H   18.217905   46.134209   88.826622
H    7.522629   49.613850   40.163937
H   76.758881   27.549120   45.441475
H   11.462939   36.348625   19.189251
H   52.488121   98.689369   14.919682
H    5.702755   84.948029   51.174156
H   18.214191   30.504524   61.047623
H   57.481750   19.021675   62.003677
H   45.422287   93.939125   27.713684
H   77.535271   65.278427   72.522400
H   36.694794   61.810223   57.404030
H   41.321213   49.943806    1.007112
H   61.024723   46.834740   42.828217
H   58.079842   77.770775   73.067673
H   26.530296   61.532108   53.190231
H   55.477043   21.845802   51.849533
H   37.158314   65.867355   94.963844
H   83.408211   56.348156   41.082905
H   57.711769   53.153667   35.260731
H   56.224503   37.079720   59.227562
H   80.443336   39.558151   48.106380
H   97.608345    7.852240   45.453693
H   96.584656   95.266624    7.448622
H   16.306198   16.884907   84.459076
H   65.648155   83.836380   84.461441
H   29.268600    2.292722   50.897812
H   52.707104   47.250988   13.516984
H   78.530365   28.655756   71.730835
H   78.350822   21.030605   68.655647
H   57.614929   36.270142   43.519753
H   68.033333   18.209299    1.054389
H   93.643517   27.279020   91.159958
H   45.401642    4.849086    0.146248
H   29.088186   75.925110   51.135475
H   47.047676   47.497948   83.322922
H   76.924339   50.138927   33.417282
H   51.355892    2.437000   91.583717
H   57.916233   37.520660   45.344643
H   56.350071   16.716539   96.781578
H   25.597044   60.845287   61.823357
H   69.344322   62.286564   38.745884
H   43.386539   69.605247   75.263687
H    5.828672   71.473694   38.039326
H   51.861053   34.022888   82.531609
H   28.710476   73.402138   23.247736
H   75.808807   40.147610   17.988111
H   96.158768   10.354376   22.091034
H   27.607721   29.760536   53.051918
H   71.771576   81.212601   60.185867
H   53.690216   26.316088   52.415413
H   22.288517   87.048523    4.677724
H   90.403702   82.213936   52.845509
H   25.372540    8.657965    1.601676
H   14.774887   65.858437   91.410812
H   85.320129   53.065659   70.888191
H   14.562568   95.356506   88.522583
H   74.059059   39.267708   68.698158
H   21.328272   19.997763   67.098465
H   37.238670   36.037659   65.256180
H   60.172134    0.905626   30.280205
H   72.360657   52.359634   97.370087
H   56.237312   54.421021   37.297062
H    3.121799   82.759338    8.323408
H   71.893280   15.817501    8.618702
H   84.591240   18.258924   80.063438
H   62.069298   31.591909   58.469707
H   74.643517   40.368515   56.509296
H   55.079788   46.960152   27.693624
H   29.326656   15.237238   28.868664
H   60.870941   47.432468   40.795006
H   97.910469   96.108124   42.416481
H   51.429531   50.717449    3.827692
H   96.787033   57.759293   13.518030
H   48.898342   41.840820   27.247532
H   92.704597   89.465309   74.175568
H   51.440521   19.278847   46.895233
H    3.601207   85.163063   85.669136
H    5.538931   52.701645   22.344389
H   89.310272   39.405121   74.200935
H   98.681343   78.806725   11.248018
H   83.146011   24.027237   98.287849
H    8.817444   85.313370   77.218582
H   31.594782   51.338856   73.001640
H   18.227448   89.716904   79.210587
H   47.494953   38.914806   66.521645
H   20.768002   64.133545   63.698967
H   65.060287   13.910576   60.427460
H   98.137100   86.588448   18.026917
H   14.472816   33.879517   22.883293
H   10.007984   45.781872   71.488235
H   67.919540   25.481770   98.122223
