100
TIME:    1.234, STEP:  1234
H   33.871498    8.857243   98.016251
H   66.944283   71.651848   55.840572
H    0.966585   62.682903    8.850685
H   81.683731   81.808800   72.524651
H   84.118225   71.668068   32.245598
H    8.881012   99.871208    0.952313
H   88.296486   44.663807   86.953178
H   22.896332   95.359177   94.891777
H   23.293922   67.649307   22.410799
H   41.117256   34.101768   56.013969
H   85.471359   15.894891   20.884684
H    8.740536   85.544868    5.091973
H   64.766174   87.048546    2.479808
H   93.981499    1.272618   51.148823
H   95.510139   59.798855   91.454819
H   51.908051    3.801152   30.607895
H   24.855099   63.603378   85.708351
H   27.514282   34.691376   56.765915
H   64.479881   30.121172   28.374514
H   59.270004   79.608749    0.349140
H   91.049332   33.368896   23.751740
H   80.671745   45.728676   14.181861
H   69.268349   84.586174   97.043045
H    4.389565   51.481632   15.426285
H   85.449455   88.307869   45.667084
H   41.000767   90.840103   73.509384
H   55.670311   91.180984   24.453588
H   28.420082   14.038566    7.561574
H   38.003220   61.050053   98.841270
H   48.309948   60.298447   81.488274
H   64.643806   32.703522   11.764091
H   43.672611   18.419380   85.026527
H   57.279987   78.197136    8.965421
H   30.241325   60.633980   19.764772
H   50.098824   65.639198   99.871796
H   79.846161   81.421097   16.398314
H   98.156029   59.344582    5.699718
H   12.988630   36.368450    9.522114
H   95.243698   54.165733   23.853630
H   46.964127   96.659889   35.122456
H   50.910202   98.524605   71.417038
H   20.716301   67.242195   60.775501
H   21.870001   70.899872   90.606483
H    0.560681   33.451576    1.388382
H   49.614693   83.203079   61.706779
H   62.167187   86.453438   88.182411
H   49.109974   92.307510   38.167671
H   56.305317    8.088602   44.930843
H    1.103618   30.249374   95.248642
H   51.770718   49.531666   97.358116
H   43.450474   50.508995   66.427963
H   65.102959   49.233433   93.051437
H   34.477310   29.163879   31.200493
H   48.114544   87.071297   86.270096
H   42.521606   66.684891   10.877462
H   95.110245   11.235071   50.618530
H   74.481140   53.940498   73.351082
H   34.172058   60.351677   81.770096
H   87.600075   90.907562   16.748123
H   77.586884   22.636976   28.511681
H   37.542797   21.185478   18.183899
H   55.114075   16.459457   39.520653
H   57.935371   23.004112   48.900978
H   27.775442   48.507141   93.636024
H   81.302391   62.287670   10.480844
H   25.538582   80.927315   19.149061
H   88.562119   91.025604   26.640396
H   95.124809   88.110458   25.194937
H   18.403839   61.118958   82.838326
H   55.382942   10.209167   99.134674
H   82.846779   11.439375   47.347538
H   72.217422   10.571381   46.969742
H   26.533020   57.266125   30.107029
H    3.030736   71.290741   29.868309
H   21.668381   30.399534   94.943047
H   54.833706   86.660667   12.897515
H   78.994591   19.591852   12.869232
H   89.955887   70.033669   82.589462
H   20.701006   49.887547   31.447998
H   39.007919   41.748077   14.610871
H   35.030376   42.047955   53.741695
H   33.910961   52.286514   83.590897
H   95.876457   27.852938   47.432224
H   35.058201   17.756571   50.717751
H   92.243408   71.697662   28.129890
H   22.890011   54.383083   27.476112
H   49.570793   13.631081   82.384918
H   75.820129    6.497641   82.915016
H   81.291206   25.464766   18.103867
H   57.235977   58.507019   68.328224
H   74.522896   40.064037   59.521557
H   69.590462   88.314964   57.033638
H   64.459740   64.603500   14.380352
H   66.499458   88.084038   10.021356
H   35.257999   39.195702   44.441948
H   95.844894   47.001335    3.711104
H   64.653214   38.497051   66.220612
H   11.395976   26.744446   36.292496
H   49.927055   42.169582   41.684414
H   15.876999   47.007488   78.833931
