100
TIME:    9.808, STEP:  9808
H   54.046783   22.581394   90.166519
H   29.602581   36.345554   96.530266
H   48.361362   79.530937    8.208618
H   83.122849   28.561686    2.551896
H    7.311174   58.911438   99.771614
H   75.926758   90.582359   50.065323
H   38.932720   23.621065   57.451550
H   48.996841   37.118336    7.655104
H   12.528511   43.292801   82.709190
H    6.865606   57.213352   91.743599
H   87.938690   60.887238   94.990807
H   81.497536   15.314644   94.785347
H   18.326187   68.322502   50.415337
H   69.448074   74.844887    3.632308
H   99.733955   93.933929   79.232689
H    7.163831   53.885422   18.891060
H   35.406075   30.693756   66.249283
H   10.805495   17.581413   59.531334
H   98.032166   89.810242   80.092148
H   28.271275   97.529510   84.106865
H   82.255600   79.800972   91.036469
H    2.682861   57.104248   84.036499
H   54.791267   14.862169   51.732529
H    7.752876   54.160370   78.647476
H   78.794418    8.336365    8.969841
H    1.359001   36.963669   67.906227
H   16.323799   34.769611   94.569748
H    4.971592   14.243993   90.972069
H   24.436794   38.950199   93.543228
H   77.075554   48.091599   63.096413
H    2.061002    1.558646   33.401352
H   85.040512   81.526276   91.288414
H   61.221054   50.882202   81.379051
H   92.512955   74.878044   58.555763
H   36.861855   17.066719   21.779356
H   25.229746   53.639614   88.592293
H   20.514153   45.345467   81.297440
H   58.607311   79.464760   14.565009
H   31.073017   67.717369   93.844734
H   39.389492   93.990295    9.707273
H   64.944107   92.719727   73.416710
H   73.648857   80.068802   80.668694
H   95.694794   22.324963    9.915346
H   53.078197   77.276161   39.707073
H    5.867017   44.904087   95.400635
H   51.526810   49.983410   23.007437
H   18.372952   58.234661   19.618811
H   56.786251   96.389221   75.440643
H   51.725769   20.152088   53.230240
H   31.652784   80.025505   97.757118
H   45.894520   22.974854   52.109634
H   81.797623   53.630081   30.202051
H   12.310247   78.878845   33.238754
H   49.558044   47.179314   64.616158
H   59.867409   18.130800   83.758026
H    5.811611    2.216660   58.739319
H   18.037178    6.540568   88.809792
H   95.732376   50.642677   60.923729
H   63.816998   53.195114   58.525875
H   11.792789   81.663818   84.647743
H   78.400452   22.454153   49.693935
H   50.812828   36.650589   51.575592
H   39.943737   38.031868   60.919937
H   16.537502   95.191315   60.855484
H   21.618553   77.494606    8.944665
H   98.829254   54.688835   26.110361
H    0.653756   87.450012   40.592968
H    2.860003   78.467171   35.081726
H   45.732277   45.046005   45.092793
H   29.220352   41.274136   81.041016
H   10.575373   28.060001   44.503181
H   65.601082   25.936913   74.967377
H   67.492462   33.166492   10.270565
H   14.299267   28.672310   20.395437
H   34.931252   42.757008   44.950687
H   57.527687   36.173443   35.975487
H   57.558540   76.893356   64.692711
H   92.769707    9.408440   56.110489
H   31.842627   24.709530   27.115290
H   18.532078   74.730843   75.953316
H    2.823360   30.750620   66.194237
H   77.279655    8.084939   66.465462
H   38.250954   71.142738   64.008392
H   24.924202   51.451248   67.607262
H   74.763809   35.370544   96.978790
H   25.559200   69.320091   22.880665
H   22.209063   90.230339   91.226387
H   13.767420   20.231531   93.888885
H   59.228764   48.078209   47.974007
H   99.179413    5.747025   74.827515
H   25.407095    3.034466   40.589134
H    3.991579   33.134354   20.408297
H   14.165097   21.803213   77.472282
H   92.101295    7.980123   92.848366
H   87.015610   71.189430   41.462227
H    4.022185    8.425436   60.852966
H   84.089622   30.538654   73.120895
H   19.345598   71.759155   81.978966
H   41.482414   79.155510   23.514584
H   48.423241   26.946350   52.904819
