100
TIME:    2.853, STEP:  2853
H   24.385349   60.386681   96.534012
H   21.908928   59.431335   57.966358
H   28.795271   79.160492   89.848442
H   81.955475   15.106489   83.780823
H   69.616989    1.438045   88.348694
H   83.779182   98.117226   61.288876
H    3.445428   53.986855   13.561255
H   95.646118   35.422550   46.241467
H   83.495750   11.989147   20.500465
H   96.876900   57.348213   19.409555
H   34.875916   81.039276   64.933121
H   46.950768   66.696838   89.849770
H   61.781677   89.096786   41.563881
H   13.817170   96.282112   74.355247
H   15.203495   15.185943   13.630652
H   86.811020   62.195282   96.217140
H   94.685768   70.673416   33.108196
H   62.112206   55.959282    0.635023
H   89.702644   98.038574   13.670328
H   15.655128   45.227558   10.578089
H   94.975662   72.192780   79.806717
H   35.900238   47.871384   76.318985
H   47.652367   71.418953   50.723083
H   53.966904   70.898956   95.184502
H   27.543804   59.903137   57.611458
H   33.577221   42.598713   21.760035
H   16.061062   23.880724   56.581112
H   91.814262   89.608116   61.079060
H   73.206390    7.938695   22.309126
H   10.390483   20.228592   10.194130
H   28.338007   77.889145   83.658669
H   45.897285   73.684731   35.147545
H   71.319916   59.743126   54.817726
H   98.646645   12.262270   51.558289
H    9.853114   43.255280   98.457375
H   20.611710    8.602411   10.832654
H   53.438286    0.051752   33.270443
H   46.070671    6.736093   23.770061
H   24.646233   19.254736   67.835358
H   94.472900   45.095192   62.503490
H   40.269039   54.075176    9.561662
H   75.209770   39.902870   36.836975
H   35.815395   80.608536    7.549235
H   97.176346   60.588898   59.684380
H    9.179365   19.327229    0.249374
H   41.279972   17.333393   94.753670
H   64.023727   79.993256   52.846466
H   56.391781   24.757612   45.105385
H   48.424278   96.164726   30.666189
H   85.718437   74.168785   84.121979
H   43.326954   94.204422   83.498413
H   43.782627   99.001694   86.767570
H   68.060875   38.551392   37.171547
H   10.626255   60.661179   57.711273
H   13.632257    8.613402   24.614454
H   97.135971    9.533585   95.503952
H   77.118950    7.224692   27.331596
H   13.616120    7.456756   40.069778
H   15.287331   59.315090   92.456795
H   70.749207   47.079693   82.464485
H   39.670509   45.893543   91.953842
H   97.656059    1.387035   66.267197
H   67.751717   12.599289   37.831711
H   38.949783   57.314110   49.683620
H   45.563267   32.979366   61.256439
H   26.080757    0.441867   14.876497
H   58.667091   46.997311    4.804536
H   83.289452   80.703003    2.592498
H   99.094017   44.787941   81.297646
H   88.186584   91.640205   95.725525
H   31.437729    1.281165   27.925694
H   38.724266   56.839615   65.506287
H   20.970804   77.184654   88.595451
H   67.406761   68.837189   33.646278
H   99.727074   32.705067   17.674728
H   93.103127   90.423210    3.959475
H   25.988523   79.268204   41.506489
H   66.019455   64.171425   72.001556
H   98.325668   45.138569   49.512260
H   59.608864   53.574482   75.132736
H   66.712173   58.797253   50.505619
H   55.388710   62.859818   48.211647
H   98.308517   54.878143    1.634130
H   46.431759   56.296478    2.840040
H   13.411654   70.428696   71.186104
H   85.629150   13.849037   39.904278
H   57.700142   95.916573   59.585373
H    1.882384   76.876389   66.073463
H   14.890375   35.321175    4.858589
H   14.094677   91.894241   26.206161
H   40.779144   27.485989   93.711868
H   89.384186   10.068466   87.886116
H   68.337448   13.120169   39.631310
H   22.980808   86.288490   19.182182
H    7.262973   94.174713   81.646141
H   29.567719   83.069771   20.088028
H   36.144272   31.408215   73.110878
H   17.339674   40.529266   10.385889
H   72.803154   49.148457    6.068535
H   16.422434    5.422144   22.900694
