100
TIME:    4.165, STEP:  4165
H   35.659821   40.069550   95.332840
H   85.448708   30.558908   40.722466
H   51.347275   73.550911   74.453423
H   82.175690   61.052361   11.864665
H   57.865524    6.600619   52.773987
H   63.439060   96.695839   91.219841
H   34.682926   42.578876   16.161432
H   92.525505   48.926746   25.777256
H   51.244286   85.845551   37.915012
H   61.021919   76.186592   70.788361
H   12.836868   33.830173   38.555660
H   96.872566   32.460396   96.460289
H   78.289902    9.724079   11.166824
H   48.854317   92.238167   74.199036
H   31.164066   97.993134   50.565502
H   34.059555   47.442986   87.309509
H   89.182533   57.451900   52.544731
H   90.140221   92.156563   55.148624
H   10.139637   53.081741   82.790482
H   80.305077   17.367750   99.905235
H   17.119705   41.578785   44.197540
H   61.682953   49.613083   64.590057
H   30.135277   60.748543   13.184140
H   32.067894   86.634308   97.743195
H   80.620148   55.855080   67.299294
H   27.559900    3.525643   98.761253
H    2.925838   69.344742   82.609352
H   81.110962   50.847824    4.442807
H    1.734340   26.973167   60.290291
H   60.697693   87.755699   14.494225
H   79.974937   95.539513   79.857399
H   28.737715   37.436699   13.689110
H   63.735668   63.751045   73.013046
H   54.082901   92.025421   96.287117
H   77.240295   44.078117   78.347321
H   34.693607   11.649860    6.334297
H   79.276321   52.004868   36.650928
H   91.845543   82.730186   16.354603
H   69.268341   90.670219   40.692513
H   70.896248   22.269669   65.729004
H   50.603241   99.096893   40.471294
H   57.294662   98.784409   98.477112
H   47.116421   88.476212    2.316705
H   13.395720   82.571899   87.966309
H   95.372963   67.559723   12.520881
H   24.353458   42.357807    0.078985
H   74.273727   51.344994   65.447609
H   56.461849   38.268112   26.284492
H   86.777634   87.504547   78.331482
H   13.230075   94.128258   92.359352
H   43.226856   67.539604   97.331909
H    7.544241   77.258896    0.636268
H   95.267418   46.158813   60.974003
H   80.240105   39.250290   15.606421
H    9.170742   23.598734   35.772030
H   98.777573    8.152685   50.840378
H   60.293324   69.367348   52.113640
H   15.921138   83.554604    6.273720
H   18.761770   14.750011   91.733757
H   84.171677   47.924503   45.148079
H   22.432131   84.880150   89.659920
H   51.090630   89.174850    6.900019
H   56.823223   23.071087   47.863914
H   29.042158   64.451706   14.058865
H   97.637611   28.191990   83.437172
H   45.482521   35.218239   92.451111
H   53.402939   92.357819   68.148422
H   92.660591   55.738235   65.313683
H   64.487106   50.515991   99.010040
H   14.769651   57.631355   92.962830
H   89.774269   12.013021   12.185337
H   30.544151   13.296979   61.564770
H   35.426208   12.289310   54.959946
H   38.522991   85.810280   55.683708
H   62.980885   34.576893   17.133249
H   24.120119   74.511070   15.678209
H   45.110184   65.553024   64.709129
H   27.659603   78.382042   44.457924
H   61.237831   41.284809   64.156441
H   95.265625   82.119484   62.102745
H   92.377213   72.370499   28.920755
H   53.830711   71.428177   38.503174
H   81.316750   76.779510   26.595684
H   36.695580   68.567085   83.008408
H   49.528687   88.361290   44.002319
H   55.436855   62.044174   31.013580
H   45.325661    0.523483   22.146925
H   22.997984   71.834312   52.428635
H   42.119980   62.271584   94.126472
H   98.096146   37.916748   73.104477
H   94.471527   98.330269   21.418985
H   86.464249    8.730722   12.888903
H   52.438042   52.488762   41.090374
H   49.791431   65.872253    7.643604
H   84.579613   76.654686   11.794572
H   37.933533   31.259296   52.321327
H   32.003845    6.701447   97.655670
H   22.154371   51.700165   89.389091
H   10.302177   54.803974   96.173775
H   97.916100   71.750710   96.512054
