100
TIME:    6.823, STEP:  6823
H   55.910477   96.319221   92.899368
H   12.041737   74.593163    8.316852
H   97.050369   64.777885   43.250942
H   82.621826   51.543182   66.172485
H   34.058060   19.650877   80.706100
H   22.211994   93.816231   54.451336
H   95.377258   22.058872   24.020639
H   83.611946   78.877777   81.728813
H   85.905510   30.289856   70.604393
H   88.399117   14.352947   74.865791
H   65.596191   40.780643   82.523323
H   95.424591   65.692368    7.260816
H    8.676956   48.988743   47.053886
H   17.247070   84.045479   76.473869
H   63.478157   60.568840   22.784901
H   27.186234   14.964615   66.672363
H   75.441994   33.259144   94.512947
H   46.974117   62.831863   63.003189
H   51.534290   64.588745   22.824429
H    8.695557   60.915455   80.874199
H   59.390228   76.966461   72.053047
H   16.507996   53.141617   38.236786
H   94.645317   39.131203   37.137268
H   85.103065   18.451143    0.337611
H   85.555122   45.062508   86.929298
H   15.436230   24.958164   48.808655
H   73.724693   58.854782   35.347004
H   56.836052   74.914284   92.304214
H   59.530495   68.127937   34.644470
H   62.617161   21.970848   25.797226
H   84.583702   33.887436   69.564964
H   96.565765   63.995930   67.624779
H   50.960629   69.279243   12.466680
H   66.389793   48.435440   84.309616
H   11.150370   43.073189   40.168610
H   65.749367   19.835392   97.975075
H   34.213722   54.662720   46.090977
H   81.984886   34.088840    3.922597
H   57.073055   32.753593   83.113129
H   20.543446   73.437485   74.854660
H   68.947937   90.297478    3.092425
H   25.208817   68.359543   28.286728
H   70.006012    4.417097   94.306999
H   43.671467   27.166464   47.852081
H   64.809975   62.688992   39.973087
H   90.052605   93.055130   10.880419
H   95.039352   95.895340   90.958504
H   56.604061   65.644669   90.746521
H   64.470039   67.368141   72.303329
H   68.989502   34.583858    6.467280
H   43.033092   10.926733   25.351116
H   36.724506   30.615601   26.148933
H   50.402889   61.570801    6.598978
H   18.688202   95.877441   32.895584
H   97.537064   56.540771   58.383038
H    2.093797    5.356589   60.355774
H   28.800577   92.671440    4.911482
H   18.001116   32.539726   37.811508
H   28.392609   27.060566   87.682182
H    8.772045   52.227421   69.548241
H   90.100365   61.268776   82.421005
H   56.756325   64.434555   86.634720
H   37.273846   41.694130   65.596863
H   11.562443   78.930862   41.896267
H    3.138390   15.902195   30.965689
H   82.199860    3.081818   49.612854
H   40.146805   84.250671   96.475906
H    9.054518    7.751556   92.381454
H   96.958382   59.529068   32.306049
H   68.615196   91.318779   87.365845
H    5.370719   31.164734   80.303505
H   11.386962   25.079079   56.174187
H   62.118896   80.813950   86.806458
H   80.007057   17.592152   97.754669
H   91.135490   38.369053   18.627808
H   86.957115   44.863468   36.828186
H   86.456635   35.252857   11.748411
H   52.537273    4.580530   91.247917
H   88.701088   33.477421   93.804237
H   64.918655   37.338997   33.113548
H   44.388504   99.868729   87.784134
H   53.288574   88.718933   16.192596
H   49.446007   21.222692   79.731628
H   19.561539   96.017723   40.241207
H   20.105833   22.102150   86.339119
H   94.257553   59.676422   15.593221
H   22.847536    7.264894   48.890373
H   65.761620   59.091511   24.833961
H   97.278671   14.278782   72.387459
H   63.094875   28.559147   68.120651
H    3.247934   41.853889   77.551071
H   83.131805    8.634393   63.527542
H   22.820789   32.243290   46.637642
H    6.683787   27.116297   86.863449
H   38.627556   38.567123   72.871704
H   57.473419   26.298494   15.032343
H   21.024691   59.237656   44.792557
H   25.107355   24.061741   41.909607
H   83.681175   66.265572   73.540047
H   63.012394    3.546301   40.459476
