100
TIME:    7.022, STEP:  7022
H   42.452713   78.069862   92.717178
H    6.546382   85.375771   20.864426
H    0.472321   79.094978   40.914356
H   82.655228   43.344635   55.264164
H   32.275635   35.601604   75.310242
H   19.125393   93.600639   74.158951
H   84.946884   35.496899   39.582699
H   67.970940   96.094727   63.458153
H   81.013710   11.156779   58.078114
H   82.963783   17.210512   82.657448
H   47.085693   48.787891   63.353958
H   87.830307   75.667267   93.095863
H   95.979988   36.951847   27.279736
H    7.394058   83.432106   91.616890
H   65.895210   42.793175   13.215374
H   19.184299   97.559082   50.153809
H   59.439644   46.420849   12.628716
H   51.229771   53.148468   56.105782
H   54.633038   72.936081   33.307941
H    3.334618   56.690166   94.423058
H   47.581284   57.155815   66.651115
H   35.586319   53.405792   21.290085
H   91.988380   37.512749   31.443758
H   66.613823   20.831758   85.558945
H   78.437569   29.280304   88.398964
H   14.497952   19.092407   30.081125
H   56.564777   50.581841   39.295971
H   40.045731   84.202934   98.881271
H   63.857506   86.182961   25.237944
H   70.247879   17.045647   41.617088
H   92.414833   51.731422   53.820717
H    9.130636   58.498348   49.202339
H   64.978523   54.719231   30.394171
H   74.797859   30.198227   75.925842
H    6.197529   28.006081   52.276649
H   83.048302   35.422333   97.349556
H   53.299637   47.375122   61.771458
H   73.759010   30.446560   17.964943
H   48.672581   28.418100   63.828323
H    1.799907   54.807812   90.510849
H   55.347458   97.126564    7.780418
H    8.438061   69.139923   38.445614
H   71.718597    5.610821    8.681099
H   30.965237   30.506613   67.308708
H   47.548927   54.838123   57.001778
H   87.483727   96.850754   11.688887
H   96.594040    6.717801   92.868462
H   56.616207   67.694305    3.059454
H   70.287971   50.887234   64.365921
H   73.167725   37.612766   92.553596
H   43.019428   91.714432   27.448578
H   46.397274   12.149132   13.085999
H   54.531010   62.724670   95.041603
H   14.080315   92.631424   41.677139
H   81.692612   73.980034   60.075886
H    2.341652    5.147261   53.581345
H   41.415714   86.929420   23.838203
H    3.183431   13.746096   32.685898
H   44.086754   35.470150   72.405556
H   95.639946   67.523438   63.888206
H    2.653334   52.015045   66.904495
H   49.693428   62.582291   77.631500
H   50.784748   28.114689   51.950836
H   25.227448   80.014893   36.492817
H   11.037200    0.008305   49.497486
H   69.974915   93.189018   61.379288
H   24.180521   91.131378    6.083788
H   95.308037   19.133108    1.894805
H    6.876472   45.230194   19.824520
H   72.647667    1.327208   86.946808
H   99.051323   17.624985   77.916817
H   95.010353   18.457233   70.758492
H   49.143936   70.972656   81.705139
H   75.625389    4.997558   85.930542
H    0.729063   38.654697   33.714359
H   91.660652   57.618282   23.438257
H    4.530016   18.028316   15.277582
H   61.886654   91.568825    2.237255
H   98.244804   32.892895   96.023918
H   55.159348   26.498310   15.969476
H   48.282814    1.927919   99.678101
H   68.220985   90.009445   99.544289
H   62.033813   24.550695   98.682419
H   33.252285   13.046705   22.066242
H   10.416365    9.653829   67.048241
H   89.678513   66.986176   29.412338
H   36.138294   92.795860   58.379433
H   68.962090   43.166592   22.770660
H    1.408503    3.198983   70.759895
H   45.499882   20.371227   75.235168
H   11.391926   52.598541   81.753586
H   97.855789   23.600723   67.319939
H   35.577122   38.214565   62.026619
H   25.916042   39.189415    0.281734
H   35.187202   20.741356   77.444672
H   73.909988   18.440794    4.753414
H    5.229322   70.657928   33.347992
H   24.723238   33.908199   37.915092
H   74.201225   67.124901   56.872051
H   75.373863   98.439560   21.288540
