100
TIME:    2.736, STEP:  2736
H   32.297272   71.116203   96.641129
H   25.163490   53.087349   50.586018
H   26.784155   70.742905   91.221321
H   81.935837   19.927187   90.193542
H   70.664948   92.059982   91.521133
H   85.593025   98.243980   49.701527
H    9.577272   46.086105    4.411661
H    4.842094   25.300913   56.984379
H   86.371834   23.238266   27.865185
H    0.074319   55.668266   14.827640
H   45.758972   76.331497   76.203583
H   51.416641   60.832199   98.178093
H   69.224236   96.175415   53.192291
H   19.610313   96.642738   65.452065
H   13.780182   25.636534   19.254820
H   91.515228   72.428497    5.929259
H    4.094250   62.934357   22.457224
H   59.611923   61.648964    4.691620
H   87.879875   93.130844    7.506646
H   18.807037   47.711773    2.612252
H    1.918584   83.839935   82.982727
H   24.683334   47.716064   86.282623
H   49.214485   72.370506   54.070480
H   64.837463   69.495728    3.873779
H   31.728050   69.182617   56.748276
H   34.113697   46.084469   32.726524
H   26.150116   28.744268   54.259357
H    1.686735   84.146950   57.211254
H   70.662369   97.323616   27.839472
H    5.904302   23.124313    0.893207
H   23.733328   67.397064   92.915337
H   38.509804   76.917870   45.978828
H   63.078968   68.303535   44.277443
H   93.703209   22.984573   56.487442
H   12.761556   52.099548   91.332329
H   10.438748   99.411308   11.234788
H   42.216919    4.336817   24.051268
H   50.906097    8.877468   15.514029
H   29.585205   21.803667   79.173660
H    5.493177   56.048767   53.297703
H   48.264782   50.060978    6.804946
H   85.725060   34.651474   31.340158
H   34.807606   79.906921   99.098228
H    4.647527   58.627769   48.245209
H   19.328226   23.943066   90.237526
H   42.789425   15.101795   94.278786
H   63.108799   73.630524   51.722633
H   56.385532   23.552996   37.866081
H   45.004578    5.854723   35.333672
H   83.265465   72.388863   92.305695
H   43.335880    5.500074   82.264786
H   38.096516    9.858459   94.447838
H   65.634682   37.872986   43.967209
H   13.335415   62.570534   52.548248
H   22.947083   98.357086   23.621412
H   96.989578    9.656546   99.486908
H   69.701118   10.600877   16.203957
H   22.328217   18.506123   43.083328
H    6.060119   54.371655    1.438601
H   78.470535   38.086353   85.792244
H   32.290169   51.334179    1.076530
H    1.808422    2.476278   71.560547
H   59.815029   20.578623   45.858078
H   30.915197   56.677658   52.860523
H   40.918865   42.324406   50.359993
H   33.268288    6.258220    7.958767
H   68.054085   42.952763   99.155594
H   91.371407   74.011780   96.999222
H   93.263298   53.194817   88.635139
H   85.815735   85.755928   95.971893
H   35.152962    9.241963   29.329369
H   48.371017   60.722595   56.939789
H   28.599745   82.972527   91.594719
H   69.981133   76.240738   40.599937
H   94.085594   32.538143    8.805019
H   90.337730   82.925041   11.831940
H   15.365671   89.408585   39.437351
H   60.522579   71.821342   65.540634
H   92.714539   45.482235   48.206329
H   65.346748   59.947033   85.212418
H   64.423447   57.586834   43.512684
H   46.609604   62.095718   57.994972
H   90.906754   52.925049   90.490448
H   38.382832   46.284637   13.526398
H   19.108822   77.746552   82.527977
H   88.321350    9.551426   31.779476
H   49.885979    4.423447   54.006378
H   99.999359   86.243744   67.291023
H   12.462173   41.835655    5.815833
H   24.439068   96.707352   22.023701
H   35.991028   21.168335   91.241043
H   80.727371    1.269928   85.656303
H   60.830997    9.614046   30.580109
H   11.672049   79.192009   11.293485
H    9.286098    4.654645   78.957512
H   19.904007   87.690071   26.131195
H   45.431290   24.693783   79.839592
H   16.910315   39.533081   12.257977
H   78.376793   48.644115   15.868843
H    9.156143    8.426794   34.170074
