100
TIME:    2.201, STEP:  2201
H   68.477692   20.178299   97.130936
H   40.045464   24.079081   16.838308
H   17.588026   32.252228   97.499016
H   81.846039   41.969627   19.518475
H   75.456894   49.177372    6.027161
H   93.887093   98.823586   96.717827
H   37.616047    9.958918   62.573921
H   46.892036   79.016083    6.104836
H   99.523155   74.676178   61.543255
H   14.693022   47.986458   93.877495
H   95.523376   54.804478   27.738344
H   71.835953   34.015259   36.258965
H    3.257414   28.543983    6.367860
H   46.100716   98.291756   24.736996
H    7.271926   73.425110   44.972763
H   13.027008   19.221748   50.339615
H   47.110336   27.552650   73.748856
H   48.179008   87.665886   23.241024
H   79.544991   70.689514   79.319229
H   33.219612   59.071217   66.186958
H   33.666168   37.101086   97.505508
H   73.392365   47.005844   31.842773
H   56.357506   76.721626   69.376953
H   14.544807   63.079258   43.609123
H   50.863152   11.615128   52.801247
H   36.566814   62.023609   82.872063
H   72.284874   50.985294   43.642788
H   46.827591   59.174953   39.525135
H   59.029449   48.783730   53.129509
H   85.389885   36.365433   58.361660
H    2.683153   19.420923   35.246639
H    4.729729   91.701881   95.506493
H   25.392750    7.446991   96.080414
H   71.098610   72.014267   79.026733
H   26.061611   92.541290   58.752647
H   63.922955   57.385212   13.073606
H   90.903625   23.931143   81.895569
H   73.018471   18.669529   77.759422
H   52.169395   33.459290   31.018587
H   55.883160    6.132571   11.203871
H   84.827126   31.705423   94.199142
H   33.807861   10.638907    6.206570
H   30.199339   76.698685   60.452820
H   38.809990   49.660217   95.936325
H   65.734077   45.049671   44.456886
H   49.691624    4.897480   92.107307
H   58.925030   44.535980   46.583740
H   56.356960   18.044706    4.763332
H   29.367483   50.161884   56.677017
H   72.048882   64.249901   29.723797
H   43.376698   57.151283   76.623840
H   12.097483   59.503582   29.570354
H   54.537071   34.770874   75.039940
H   25.723454   71.297935   28.939810
H   65.539749   51.456959   19.082533
H   96.320175   10.218803   17.699570
H   35.785374   26.038322   65.320854
H   62.165863   69.030273   56.863235
H   63.863808   31.767035   42.511490
H   13.776176   96.963272    1.008861
H   98.541000   76.214302   42.788052
H   20.794571    7.457005   95.765182
H   23.524879   57.061729   82.560959
H   94.177856   53.767387   67.386436
H   19.682827   85.053986    0.535649
H   66.134346   32.854713   76.325645
H   10.978018   24.457628   73.326431
H   28.327797   43.415161   71.423126
H   66.601463   91.636513   22.189163
H   74.974670   58.848412   97.098450
H   52.141106   45.643883   35.749073
H   92.484863   78.478104   17.768206
H   63.482376    9.436985    5.310833
H   81.752831   10.095366   72.396584
H   68.289085   31.775461   68.248642
H   77.692543   48.636711   47.829708
H   66.792419   35.778748   29.975473
H   35.387310    6.802204   35.993229
H   67.056808   47.053699   42.234764
H   91.584084   89.082962   31.302986
H   53.953983   52.052013   11.537603
H    6.466070   58.601761    2.730802
H   57.060246   43.994232   39.534184
H    1.578218    0.504004   62.392822
H   45.159409   11.209604   34.390091
H    0.632023   89.900963   94.627251
H   14.154547   43.322296   28.495588
H   91.386917   29.077011   72.858498
H    1.358536   71.624092   10.192719
H   71.741196   18.719490    2.899351
H   14.096649   92.279480   79.942825
H   41.140438   61.040035   75.460152
H   26.504009   93.582809   89.190292
H   59.963680   46.740116   75.219933
H   18.537331   52.578156   66.663353
H   75.715149    8.816645   53.764481
H   87.897568   93.991539   10.607899
H   14.946458   34.977875   20.818951
H    3.862936   46.337940   60.682114
H   75.930862   22.168488   85.697784
