100
TIME:    4.779, STEP:  4779
H   94.138588   83.762733   94.770706
H   68.491005   63.832542   79.437561
H   61.901337   17.724342   67.248741
H   82.278748   35.756340   78.210457
H   52.365982   55.815430   36.125458
H   53.915577   96.030647   52.027058
H    2.503695   84.038666   64.177032
H   44.266319    2.046915   69.402794
H   36.150993   26.812134   99.265175
H   44.242226   85.002724   94.828949
H   55.724091   58.535954   79.411621
H   73.440956   63.237221   52.754387
H   39.109177   72.594536   50.156494
H   18.453293   90.345650   20.923792
H   38.631340   43.147614   21.049664
H    9.370365   93.740128   36.342712
H   39.808449   98.065308    8.439573
H    3.263726   62.286198   33.860790
H   19.702938   78.838821   15.139200
H   63.759674    4.328588   41.709145
H   80.684090   80.452972   27.534328
H   20.547729   50.428177   12.302246
H   21.937492   55.754921   95.616577
H   75.020599   93.998260   52.143555
H   58.659454    7.160240   71.833839
H   24.760942   85.377274   41.022610
H   49.980820   43.820164   94.788918
H   29.303982   79.507278   24.739855
H   15.086139   82.680412   31.265511
H   84.241730   72.559349   63.305336
H    4.137884   50.597240   31.279671
H   67.506203   20.474312   56.848076
H    6.983086   18.827875   28.327017
H   80.025375   35.755829   70.419594
H   61.978363   97.664200   15.736626
H   88.068207   59.740513    4.402548
H   38.167366   29.519257   85.031906
H   66.465202   71.496880   59.681065
H   43.350239   77.291435   81.191849
H   13.065409   64.790260   14.035719
H    8.641258   20.163244   54.936871
H    2.111237   26.341509   27.321421
H   52.405163   92.158188   46.665657
H   74.187592   92.858948   48.000954
H   42.112713   43.335754   65.062523
H   16.432056   54.068928    2.575003
H   79.070602   84.735741   71.340645
H   56.494640   44.592117   64.275368
H    4.727348   36.652699   53.839241
H   26.107624    3.470785   49.413925
H   43.180012    8.261658    3.805132
H   37.382256   20.283522   60.330780
H    8.002227   49.718994   25.311739
H   66.018120   29.230255   42.699852
H   60.283966   77.410164   40.995190
H   99.545822    7.506679   29.938370
H   99.220642   51.650764   10.510166
H   70.201309   25.570242   90.458481
H   67.185219   40.693985   44.596909
H   43.653553   95.117233   27.684456
H   61.163727   56.325016   41.787033
H   29.298868   83.459824   79.120255
H   98.506248   81.172531    5.760094
H   71.205910   67.796402   97.387650
H   22.008406   79.153748   40.616856
H    7.764217    4.694794   28.755102
H    4.140002   13.585704   97.791611
H   50.247597   90.852859   94.666435
H   95.085922    6.397858   60.503448
H   27.209204   88.512207   91.669922
H   70.277596   70.236771    4.819295
H   79.916351   92.919083    6.517356
H   95.391129   81.917244   39.215515
H   25.004154   46.955410   19.201458
H   92.586433   35.452885   63.678677
H   38.637222   13.861380   74.362625
H    0.856745   12.334007   75.567680
H   56.506435   38.233311   78.366661
H   90.683830   39.481297   71.005104
H   65.153992   48.679745    9.206106
H    4.389613   78.722610   65.618523
H   99.898613   75.438065   87.160179
H   20.156618   87.041077   85.071671
H   78.936905   21.108446   26.929291
H   19.631567   49.956467   84.482018
H   41.303875   84.595512   73.651428
H   86.333321   55.880692   51.424728
H   32.880035   22.676157   46.043732
H   54.861679   28.084749   89.104744
H   43.811016   12.653519   95.055801
H   19.599083   31.484463   34.385540
H   31.896502   54.905609   24.588118
H   91.796776   70.914452   88.571945
H    9.135749    3.113838   49.041447
H   73.964653   21.655655   25.902138
H   88.647369    7.014524   20.607613
H   83.267998   41.937557   62.344299
H   24.407591   56.928009   79.561119
H   81.052643   57.450687   44.746147
H   36.052822   55.994610   37.364101
