100
TIME:    5.742, STEP:  5742
H   29.014002   95.451591   93.889053
H   41.894478   16.013548   40.157063
H   78.460785   87.006805   55.943653
H   82.440384   96.079010   25.423927
H   43.740479   33.004044   10.016512
H   38.978909   94.987358   47.396145
H   52.031048   49.065762   39.484959
H   68.576416   85.357895   80.982719
H   12.478615   34.223587   38.648468
H   17.927210   98.829979   32.540257
H   66.148178   97.284592   86.650871
H   36.685265   11.507286   84.207512
H   77.658005   14.360252   54.467705
H   70.771400   87.377419   94.208153
H   50.342628   57.128799   74.760712
H   70.650360    9.512752   56.404999
H   62.369637   61.758045   96.105255
H   23.856726   15.432396    0.478995
H   34.701397   19.236536   65.871246
H   37.817039   83.875038    7.274632
H   23.538292   84.583069    1.397001
H   12.871475   51.706573   30.293915
H    9.079066   47.922905   68.064926
H   85.543571    5.519259   80.622787
H   24.217049   30.790520   78.945839
H   20.371046   56.912750   50.465363
H   66.940796    3.787902   13.895784
H   48.048115   24.456841   56.574867
H   36.025475   70.051178   85.745209
H   21.166931   48.725334   39.860733
H   42.039482   36.951878   55.090172
H   28.310490   93.867920   67.698357
H   74.816643   48.370003   15.081662
H   20.714809   47.502647   29.849066
H   38.041489   24.868704   74.375183
H   71.779907   35.167183    1.373685
H   30.531849   94.250122   60.912457
H   26.665470   53.874294   27.638676
H    2.699193   56.308098   87.870094
H   22.361559   74.637016   89.803062
H   42.826248   53.203186   77.624733
H   16.309673   64.120392   73.097527
H   60.700047   97.933014   16.225060
H   12.698338    9.022238   42.158157
H   58.578884    5.343349   47.469097
H    4.005795   72.436691    6.488692
H   86.594040   37.108047   80.583305
H   56.546070   54.510712   23.860312
H   32.874222   56.896469   15.422778
H   46.304821   18.128263   82.060959
H   43.107319   15.290400   13.956998
H   84.183327   30.924419   97.109352
H   27.978275   55.302795   69.383873
H   43.718987   13.515084   85.195518
H   83.608116   61.807346   49.187214
H    0.747389    6.493696   97.155563
H   60.268326   23.864006    2.099348
H   98.494781   34.626961   65.654648
H   43.135628   81.382439   70.667595
H   80.105667   69.138260    0.294455
H   21.910450   11.542904   66.703300
H   95.123116   74.496353   35.547112
H   63.886211   15.459097   39.724274
H   37.332352   73.042236   71.246643
H   60.234444    2.239685   30.296885
H   48.605766   56.821220   85.695183
H   26.877411   46.877346   44.286514
H   83.726448   45.928806   40.703403
H   43.083324   37.202827    0.103343
H   46.716675   36.947975   89.642120
H   39.698936    4.714954   93.268379
H    0.513529   60.959167   77.024857
H   32.602753   34.283188   14.521889
H    3.807746   86.007652   61.983299
H   39.016033   36.826794   36.681046
H   61.405907   75.581963    9.566229
H   88.291374   28.867353   92.598274
H    1.749933   75.265923   31.548929
H   36.862400   36.652660   81.746574
H   17.931885   96.225258   26.242626
H   23.233988   88.685287   23.174761
H   72.164108   81.708527    6.622347
H   81.069420    3.145659   76.783066
H   45.189880    3.514167   38.973804
H   72.741295   89.719246   91.129974
H   19.137653   19.966560   40.525208
H   50.649925   85.862602   97.344147
H   48.376152   45.593273   36.042145
H   74.845810   74.466972   81.228645
H   58.669552   73.035568   29.480551
H   59.008965   83.482727   54.722332
H    3.148752   27.332315   42.933846
H   53.526703   99.806465   63.042255
H    2.210287   61.533642   13.973205
H   57.316109   35.396420   48.030613
H   68.187241   68.986359   70.867111
H    6.829687   97.202492    6.961507
H   27.193941   70.571243   63.608452
H   35.177307   61.601803   64.085548
H   95.869537   31.286182   44.595982
