100
TIME:    7.978, STEP:  7978
H   77.802727   90.400658   91.841934
H   80.143936   37.180447   81.144119
H   16.905443   47.872910   29.690102
H   82.815689    3.956051    2.860572
H   23.709299   12.229131   49.388428
H    4.298738   92.564934   68.834908
H   34.843403    0.049377   14.343159
H   92.831223   78.799950   75.680809
H   57.513405   19.240841   97.899887
H   56.852333   30.937258   20.090523
H   58.160904   87.254868   71.267456
H   51.344681   23.586285   25.046005
H   35.019234   79.087784   32.275532
H   60.058250   80.485451   64.370659
H   77.506783   57.398544   67.237823
H   80.744812   13.944046   70.797150
H   82.563667    9.654270   99.657166
H   71.671280    6.629583   22.969501
H   69.522186   13.039044   83.673798
H   77.574203   36.391796   59.511940
H   90.850899   61.983120   40.706676
H   27.238970   54.674896   39.877869
H   79.224403   29.738726    4.089526
H   77.787170   32.268280   14.557836
H   44.244698   53.465736   95.459267
H    9.990444   90.912033   40.117149
H   74.127762   10.840169   58.266888
H   59.380356   28.825766   30.482023
H   84.644554   72.918625   80.048058
H    6.905631   93.383652   17.616688
H   30.039392   37.458443   78.185112
H   69.493095   32.087856   60.700645
H   32.316166   84.774208   16.518202
H   15.191070   42.586555   35.650024
H   82.405220   55.623466   10.439167
H   66.151596   10.299993   94.344551
H   44.992809   12.363310   37.100430
H   34.247231   12.949289   85.426704
H    8.316880    7.590937   71.184929
H   11.755375   65.310608   65.728149
H   90.012161   29.927160   30.302702
H   27.871666   72.888885   87.251244
H   79.945892   11.345493   77.732216
H   69.920273   46.552757   60.781040
H   64.622322   17.122395   38.809357
H   75.142784   15.082313   15.572783
H    4.065265   58.709053    2.045251
H   56.674557   77.540802   62.210979
H   98.237434   71.711433   26.227779
H   93.239990   52.163700   25.710281
H   42.953785   99.418678   37.526825
H   92.858963   23.439291   50.330902
H   74.358772   68.267883   39.521950
H   91.941284   77.037491   83.863907
H    5.574309   57.759468   68.204590
H    3.532348    4.141642   21.036850
H    2.023459   59.344643   14.761762
H   31.996996   23.463835    8.059405
H   19.482079   75.867821   99.014740
H   32.553070   41.004169   36.697289
H   62.959026    7.558277   92.368752
H   15.763130   53.683975   34.374855
H   15.686557   62.878693   86.395050
H   90.874687   85.222595   10.534919
H   48.984314   23.654379   38.525711
H   11.247322   45.663261   17.905979
H   47.478882   24.183094   52.240337
H   29.270866   73.807549   47.597137
H   54.525894   76.538139   59.867844
H   92.053780   49.357586   84.922394
H   68.694939   52.579315   66.451118
H   16.298759   86.698631   40.830219
H   86.810287   23.688021   57.196148
H   54.579037   44.491734   29.127382
H   46.779022   40.062382    6.199028
H   14.260236   18.887371   59.110062
H   91.355186   35.284523   32.231842
H    6.800582   29.061001   55.035969
H   44.086517   30.084820    6.690779
H    8.276982   74.419853   33.609291
H   66.997658   11.818429   56.817078
H   39.959091   96.209091   19.565048
H   22.500475   40.538486   89.727219
H   99.023476   94.853638   34.750088
H   63.867966   49.848125   74.375420
H   67.680710    2.098273   95.799606
H   99.987358   23.286888    3.965107
H   84.337212   66.667664   12.858521
H   21.250713   49.969688   62.941048
H   60.977337   81.039810    9.412149
H   50.515339    4.221275    1.942620
H   68.590111   95.501602   85.539604
H   96.858795   66.899956   35.955566
H   18.309084   97.188927   64.743065
H   18.656731   35.109154   99.413300
H   52.871689   80.689758   55.374886
H   29.345915   25.519985   78.366478
H   22.877932   81.210503   18.722841
H   28.659355   71.253136   76.796638
H   34.755375   73.903549   29.194080
