100
TIME:    0.304, STEP:   304
H   96.764565   94.143044   98.867691
H   92.813881   21.227127   97.176788
H   84.987579   95.775169   19.770409
H   81.527634   20.125479   23.499640
H   92.448151   97.124466   57.462425
H   23.302284    0.882784    8.851297
H   37.037945   81.865379   14.225926
H   95.992493   14.902361   80.282051
H   46.155098   57.065048   80.951790
H   66.532753   20.751335   19.593607
H   71.977692   78.474686   10.467003
H   44.238506   38.928505   71.290062
H   23.925289   43.315048   94.914055
H   40.029621    4.139965   80.374825
H   84.200172   42.868126   36.159252
H   89.300476   85.147346    7.805075
H   99.625420    2.101083    1.033599
H    7.640975   79.917053   89.007126
H   49.998062   91.105713   79.378113
H   84.420387   99.157959   36.927513
H   46.236755   25.953133   48.991013
H   91.497231   44.501183   93.370247
H   81.685188   92.149803   23.652649
H   90.796616   40.327763   84.497269
H   18.710596   62.065037   38.803299
H   45.265064   18.551281   60.678795
H   35.864323   29.839710    5.998713
H    6.890742   70.628876   76.823868
H   17.781509   76.673332   42.801544
H   12.650542   83.315720    7.556032
H   28.060244   49.303658   85.355949
H   84.952179   44.111595   71.121284
H   91.770935   46.239845   25.183676
H   90.946632   45.862854   58.944115
H   73.215431   35.940201   43.239418
H   98.986320    8.366358   19.598310
H    8.956914   93.402199   32.419201
H   51.424210   53.390163   43.893291
H   37.053547   74.018486   12.989287
H   34.560253   83.723915   61.953285
H   14.467152   66.609779   49.501942
H    4.299393   25.500879   17.082418
H   13.859839   65.322937   23.431667
H   59.946884   17.866339   10.455437
H   30.286049   19.897503   82.121399
H   74.068871   68.918999   84.510429
H   39.290028   42.140385   30.220892
H   56.255650   98.512741   87.387756
H   73.914543    7.272632   32.346909
H   32.265636   35.376469   62.401436
H   43.521427   40.294640   56.622211
H   19.906610   35.529823   54.105919
H   15.185165   23.771423   85.214455
H   69.647034    2.241927   45.230671
H   16.557640   85.155212    2.985731
H   93.946609   12.212454   82.277924
H   15.524714   80.775063   84.900307
H    3.422675   48.177696    5.724386
H   14.253296   51.613586   88.145340
H   38.957413   51.155037   54.963097
H   78.877090   64.431625   90.693756
H   88.121582   25.115768   81.600128
H   94.852669   86.422737   12.702514
H   63.915771   43.448166   18.886541
H   44.388680   36.564075   23.871778
H   82.670235   27.160389   64.160713
H   63.178185   58.870670   81.739120
H   59.366432   34.923813   80.735558
H   72.054771   27.942818   41.166546
H   36.544823   63.435608    1.091499
H   12.378836   74.720329   58.501408
H   48.900410   41.436409   78.879585
H   87.170090    3.270741   53.954456
H   23.499680   30.141649   85.140984
H   76.828049   29.076254   24.443394
H   32.845257   27.055738   75.473587
H   94.555969    0.195439   96.412292
H   46.262802   30.842594   31.228886
H   76.124962   52.611034   21.078163
H   84.616745   92.397713   94.731384
H   16.830837   32.426678   98.158386
H   64.133583   46.212906   61.360291
H   37.030987   12.331470   58.854340
H   71.083099   38.175266   35.663124
H   37.527847   29.868423   18.282940
H   44.296642   20.220261   62.893940
H   87.458183   81.249641   38.039059
H   60.848969   80.955116   92.578865
H   61.991890   77.246086   25.713615
H   39.458107   96.778244   35.079479
H   36.463505   89.846771   39.881664
H    0.779562   18.369825   39.316582
H    4.789573   36.739960   42.433281
H   76.610939   31.672064   47.315327
H   51.336033   22.498913   23.072277
H   19.030777   83.726799   51.746986
H   38.471947   85.126427   19.705696
H    7.981350   18.826050   51.171417
H   94.230339   38.160717   19.587482
H   58.120922   70.895439   68.406479
