100
TIME:    3.468, STEP:  3468
H   82.795807    3.988115   95.970963
H    4.800954   92.773880   96.760452
H   39.366524   23.405567   82.632027
H   82.058701   89.767876   50.070995
H   64.108490   50.732998   71.673050
H   74.244881   97.450951   22.193411
H   71.211174   95.512871   61.655052
H   47.308334   88.628189   89.773491
H   68.377876   52.859360   81.789101
H   80.069878   66.178703   43.493988
H   77.670120    5.785119    5.694525
H   23.476303   97.523788   46.072685
H   22.663265   51.888611   80.437706
H   83.366112   94.386513   21.156124
H   22.685013   60.251511   84.069069
H   62.083771    8.405138   45.167336
H   45.231270   11.352729   89.094070
H   75.250694   26.051979   79.314148
H   99.283867   23.839777   46.069126
H   99.087151   32.169506   52.450188
H   58.480682   10.966484   63.112556
H   94.860886   48.687805   23.946014
H   39.441231   66.417198   33.127792
H   96.826698   78.274902   49.510326
H    5.549132   11.128990   62.151772
H   30.756247   24.275160   64.114326
H   63.030384   98.315506   68.783363
H   39.922062   18.314209   81.405815
H   86.578812   63.736038   93.238686
H   33.970993    5.006644   59.084534
H   52.544079   33.038044   35.001823
H   84.728920   56.692047   78.213936
H   14.638359   14.747002   10.221784
H   24.632881   55.901222   25.649212
H   94.565323   96.765770   35.905052
H   74.086052   56.915600    8.715985
H   12.425675   77.529770   81.730217
H   20.653687   95.482002   67.167427
H   98.685791    5.856508    8.237524
H   36.546734   87.520706   10.888876
H   98.239090   75.177933   24.050276
H   19.937096   67.505768   65.730789
H   41.112751   84.296509   51.970257
H   57.903656   70.894257   19.816938
H   55.831570   95.062805   52.877132
H   33.345669   29.063587   97.249855
H   68.828415   13.439214   58.753792
H   56.424625   31.089571   83.158134
H   66.400253   45.229263    6.133189
H   98.612267   83.524788   41.107510
H   43.280033   34.830872   89.982864
H   73.671158   41.934830   46.394886
H   80.813942   42.117371    1.452748
H   96.384605   50.624825   84.850250
H   64.665970   62.511299   29.843775
H   97.905472    8.886526   74.567902
H   16.108652   89.478844   85.823036
H   67.821770   49.377991   24.228172
H   63.789337   85.299820   45.243244
H   30.166649   94.349365   64.972420
H   78.464607   17.294701   44.002766
H   75.828514   95.662430   38.438866
H    9.502381   70.632988   95.659294
H   81.181267   60.659561   32.984516
H   69.974998   83.860786   18.528917
H   88.300545   69.868294   51.239029
H    9.324123   68.258057   34.498089
H   40.807381   15.875773   31.993055
H   29.746727    0.597972   42.726177
H    0.648608   22.572554   94.430511
H   11.907202   59.437172   20.547401
H   88.014694   36.429077   10.532035
H   80.871170   46.763882   72.830070
H   53.869839   29.917110   97.097862
H   29.378206   33.582485   64.295937
H    7.641264   29.838552   62.575817
H   81.827187   25.963120   52.382725
H   94.913269   23.956118    5.963495
H   27.816160   43.332119   56.376770
H   29.448189   20.078575   22.149796
H   78.742661   65.159714   87.263351
H    1.531601   66.876236   96.785034
H   37.219250   65.144409   60.209751
H   88.742966    8.923025   46.668137
H   83.466171   31.959133   11.568653
H   71.477844   36.439507   82.611572
H   98.774590   51.201073   88.910858
H   11.780321   27.637726   59.676643
H   27.655071    1.080025   99.827034
H   59.721615   66.594559   48.189163
H   65.947449   60.692142    6.699624
H   34.890312   56.318123   99.606926
H    7.760024   31.574293   87.190208
H   82.423286   23.592083   60.646797
H   96.629494   39.087597   95.778679
H   80.364151   58.783577   88.322075
H   87.329071   66.702019   37.741997
H   19.596563   45.765625    0.545408
H   43.505821   51.799480   54.556320
H   54.620640   89.639412   63.657272
