100
TIME:    0.401, STEP:   401
H   90.204750   85.247627   98.778885
H   90.115654   26.486301    3.295451
H   86.654175    2.753769   18.631470
H   81.543915   16.128832   18.182741
H   91.579330    4.899438   54.832283
H   21.798130    0.777211   18.457670
H   31.954529   88.414833   21.811495
H   88.368484   23.293827   71.376274
H   43.770653   47.738922   74.846367
H   63.881889   22.143742   23.392290
H   62.954987   82.377716    1.123498
H   40.536030   43.790642   64.385384
H   17.755112   37.446442   85.272667
H   35.226688    3.840892   87.756096
H   85.379814   34.204346   31.496229
H   85.400406   76.663399   99.753403
H   91.826759    8.515762    9.865172
H    9.713689   75.199966   85.644333
H   51.508507   95.174515   84.488907
H   81.794685   97.124298   43.545052
H   40.480637   16.296204   46.358650
H    0.798209   44.629211   85.111275
H   80.390099   91.360909   20.877087
H   81.784271   41.491123   77.293610
H   15.241606   54.372204   39.519669
H   44.820293   15.661033   51.587265
H   27.499723   25.807541    7.923494
H   98.706322   75.156509   80.029770
H   19.890656   85.474022   38.216187
H   16.369837   80.914993   15.267002
H   31.875948   58.002220   77.680138
H   91.076843   41.431870   62.141502
H   98.603088   39.142754   33.922203
H   95.045036   36.973358   54.857552
H   70.804344   28.607773   49.145767
H    7.420247   15.986296   19.264547
H   18.260468   89.849953   40.062450
H   47.415352   51.614780   50.738026
H   32.692425   71.947823    3.692167
H   25.424053   74.643486   69.584892
H    7.838512   69.938530   51.787960
H   95.581566   29.854601   21.639654
H   14.695172   65.904617   30.438103
H   53.752655   19.491861   19.939564
H   21.872036   16.070328   90.421814
H   72.830025   70.742485   84.890816
H   40.314259   47.373287   31.049749
H   56.260830   99.511810   93.389572
H   76.750420   99.239243   28.477518
H   34.300037   36.852871   55.617386
H   43.514027   30.929987   57.644962
H   24.620367   26.528805   47.737778
H   17.197290   24.333862   79.581184
H   67.401718    0.659140   49.511127
H    8.835377   93.658401    3.808807
H   94.067978   12.110512   78.975815
H   21.673813   77.976189   94.125786
H   96.199646   39.017342    3.225788
H   21.903206   55.711990   80.698944
H   32.556709   58.611053   52.204185
H   84.995834   59.920944   83.130432
H   84.678864   24.212906   77.211624
H    1.431840   79.808159    6.047815
H   70.576241   43.975822   16.252699
H   48.239166   28.816631   32.905251
H   76.711342   22.338215   69.896111
H   55.395805   62.223843   86.422165
H   52.666008   40.471237   85.372719
H   76.888786   20.973015   35.082584
H   38.509659   68.314110    0.887522
H    9.298372   68.120552   57.338047
H   40.902676   38.217186   85.981117
H   80.845612   98.472755   51.467144
H   21.364632   24.003294   79.375984
H   81.505173   29.214273   31.796913
H   35.138676   33.272614   68.946335
H    3.362751   91.788445   98.129211
H   50.820038   24.499985   36.586117
H   80.773964   52.327595   22.159748
H   79.859695   87.115227   86.374725
H   18.729069   33.430187    3.955792
H   71.411247   46.846390   53.248589
H   43.168232   13.950517   68.093140
H   77.755402   46.475681   26.803230
H   32.804840   23.800743    8.879989
H   42.063908   23.783237   69.629890
H   93.936592   74.196953   42.664379
H   62.410477   73.189018   91.570915
H   64.004829   71.845192   24.919910
H   30.882343   92.786407   38.547359
H   40.433140   95.084854   41.930126
H    7.956689   25.664881   41.164490
H   11.013035   39.646141   49.937401
H   85.985909   37.556190   53.855160
H   49.659077   13.809971   25.300941
H   27.042572   79.896294   46.736839
H   30.772512   90.693092   14.127127
H    8.337495   19.651947   49.619530
H   89.609459   38.578846   11.462460
H   64.144943   68.404427   59.064072
