100
TIME:    7.667, STEP:  7667
H   98.834709   18.920475   92.126663
H   88.733261   20.326862   61.535480
H   11.559656   25.498299   33.341000
H   82.763489   16.770042   19.907913
H   26.496084   87.301201   57.821152
H    9.121928   92.901863   38.034721
H   51.141766   79.050613   90.022537
H   17.275215   51.894123    4.234651
H   65.158379   49.142639   17.476158
H   65.346748   26.471758    7.912428
H   87.089371   74.741028    1.225638
H   63.215508    7.997676   47.183311
H   54.850609   97.913116   63.180492
H   75.457344   81.444038   40.702595
H   73.729378   85.178604   82.195587
H   93.249161   41.145203   96.612579
H    7.572531   89.083542   71.345612
H   65.022858   21.762589   33.749863
H   64.677048   99.991516   67.287643
H   85.954727   42.995136   38.337593
H    9.306061   92.942810   49.146519
H   97.423096   54.262039   66.362411
H   83.376701   32.267006   12.987901
H    6.682711   28.547823   37.655617
H   55.368111   78.129028   93.162453
H   11.456799    0.080295   69.384483
H    0.944534   23.768290   52.095387
H   85.622459   14.309333   20.202120
H   77.882240   44.701984   94.749565
H   94.980621    1.080904   92.893486
H   17.799604    9.570793    2.790423
H   49.856289   40.679554   89.491493
H   10.409660    7.528499   88.500862
H    2.050233   71.087929   48.752304
H   90.145103   79.170555   91.517853
H   39.116581   85.940903   95.322121
H   15.164403   23.753656   12.594838
H   47.100372   18.641178   63.478897
H   21.444912   14.366301    1.323451
H   41.047691   94.424149   41.258232
H   11.266661   19.256941   22.975676
H   54.080971   71.669296   71.372856
H   77.269440    9.479925   55.268017
H   89.780121   41.332726   30.374290
H   91.600395   29.391842   12.195801
H   79.157463    9.151645   14.309298
H    1.634095   41.796150   99.059029
H   56.655575   74.337601   42.968044
H   89.145088   97.469917   38.634293
H   86.710205   47.430080   47.456116
H   42.975140   29.444510   34.247696
H   77.744598   52.298595   70.745972
H   67.909660   66.464600   57.583260
H   99.144928   82.110413   70.139969
H   30.337399   30.503849   65.561356
H    3.144998    4.468783   31.624023
H   82.306168   68.318352   85.182884
H   55.154953   52.833977   16.070379
H   94.953545   62.727345   22.890408
H   53.074913   17.098797   45.542870
H   43.341198   22.020977   16.616928
H   26.801125   56.578720   48.447586
H   94.572929   84.100494    7.721252
H   69.520012   83.528458   18.979122
H   36.638939   48.494213    9.563109
H   30.351452   61.124046   99.516724
H   72.430634   13.431156   37.225628
H   50.753670   56.021477   32.729538
H   39.024773   98.884621   79.372284
H   85.737541   33.737827   85.582016
H   78.570290   73.739426   70.181068
H   41.908489   97.024803   18.034563
H    7.087957   39.071148   65.170715
H   61.424397   64.173645   47.606110
H   31.797548   39.604443   82.618851
H    6.907658   98.955101   80.037086
H   63.110065   62.203278   26.716352
H   92.189926   49.395397   37.859692
H   29.173834   30.998325    3.220051
H   23.528080   91.361229   60.402290
H   60.909203    8.600991   38.229019
H   16.622395   94.192261   45.582729
H    2.829104   35.337437   60.110344
H   77.626091   68.240967   63.154179
H   79.010803   69.302879    4.523385
H   74.836899   90.675674   74.202911
H   79.216377   45.899117   89.135429
H   79.335472   91.552979   16.083076
H   14.795671   67.285957   65.484627
H   88.472931   93.833633   98.294785
H   37.787952   87.427483   95.374802
H   45.579258   72.111115   79.612495
H   76.923019   57.568699   11.905459
H   88.251991   78.320885   43.772778
H   24.034550   62.967514   92.266602
H   27.184387   92.971069   71.438347
H   54.031792    7.673131   96.252205
H   23.478235   65.820900   24.966711
H   43.474754   69.910164    2.844844
H   15.438866   81.885452   59.154690
