100
TIME:    6.899, STEP:  6899
H   50.770828   89.349617   92.829788
H    9.943027   78.711143   13.108890
H   98.357315   70.245720   42.358578
H   82.634583   48.412079   62.006680
H   33.377335   25.742613   78.645370
H   21.033192   93.733894   61.978161
H   91.393799   27.190983   29.963938
H   77.638496   85.453094   74.751091
H   84.037285   22.982788   65.820763
H   86.323311   15.444340   77.841499
H   58.526855   43.838688   75.202339
H   92.524261   69.501877    1.851196
H    3.827225   44.392399   39.502129
H   13.484140   83.811226   82.257133
H   64.401253   53.780144   19.130207
H   24.130219    8.317253   60.363770
H   69.330544   38.285725    1.431530
H   48.599392   59.133682   60.369003
H   52.717731   67.776672   26.828182
H    6.648163   59.301777   86.048637
H   54.880280   69.400787   69.989998
H   23.794189   53.242508   31.764679
H   93.630608   38.513100   34.962891
H   78.041847   19.360323   94.693481
H   82.836861   39.035133   87.490578
H   15.077892   22.717976   41.656403
H   67.171410   55.695267   36.855152
H   50.423668   78.461708   94.816055
H   61.183022   75.023323   31.051897
H   65.531403   20.089867   31.838806
H   87.574486   40.702225   63.552086
H    1.364447   61.896351   60.589073
H   56.314236   63.718636   19.313360
H   69.600914   41.470474   81.107773
H    9.258806   37.318916   44.792786
H   72.355995   25.788258   97.736183
H   41.502815   51.879517   52.079502
H   78.843346   32.697819    9.285537
H   53.864834   31.097746   75.748077
H   13.385105   66.322922   80.833908
H   63.753784   92.905571    4.882825
H   18.803970   68.657578   32.166676
H   70.660065    4.872992   99.796867
H   38.818836   28.442099   55.282654
H   58.217773   59.690670   46.476505
H   89.071526   94.504715   11.189180
H   95.633102    0.028397   91.687935
H   56.608700   66.427444   95.448975
H   66.691963   61.073734   69.271957
H   70.585205   35.740627    1.153319
H   43.027874    3.589266   26.152157
H   40.418629   23.563080   21.160042
H   51.979458   62.011475    2.184977
H   16.928406   94.637756   36.249344
H   91.485916   63.201324   59.029552
H    2.188455    5.276645   57.768555
H   33.618420   90.478508   12.139837
H   12.342132   25.362272   35.853989
H   34.386353   30.272266   81.847893
H    3.756916   58.069248   67.386620
H   94.894432   57.734688   76.495102
H   54.058937   63.727158   83.196304
H   42.433788   36.508095   60.385315
H   16.781239   79.344864   39.832638
H    6.155049    9.832203   38.043186
H   77.531036   99.303734   54.106567
H   34.049271   86.878479    0.145106
H    3.804556   12.098277   96.014694
H    0.745946   54.068192   27.539234
H   70.155235   95.141045   87.205811
H    2.957248   25.993774   79.392006
H    5.132438   22.550133   61.744072
H   57.163635   77.055466   84.858215
H   78.333656   12.782139   93.238922
H   94.800041   38.477482   24.389328
H   88.753441   49.734653   31.714613
H   93.358978   28.674641   13.096235
H   56.107891   99.611046   95.444756
H   92.345924   33.254185   94.651955
H   61.191483   33.198982   26.566063
H   45.875778    0.655134   92.326553
H   58.991241   89.211792    9.834427
H   54.253410   22.493689   86.969116
H   24.790192    2.521202   33.300014
H   16.405333   17.348091   78.971748
H   92.508774   62.468323   20.870880
H   27.923403    1.738990   52.514336
H   66.983910   53.009632   24.045967
H   98.855820   10.047298   71.765877
H   56.375179   25.432102   70.837753
H    6.358227   45.957375   79.156052
H   88.755035   14.350251   64.975777
H   27.692554   34.523777   52.514839
H   14.028703   31.727137   91.988022
H   37.313652   31.759293   74.618164
H   63.750702   23.297564   11.106722
H   14.992363   63.599167   40.421768
H   24.960657   27.822254   40.384064
H   80.060692   66.593758   67.174629
H   67.733284    1.596098   33.137913
