100
TIME:    6.360, STEP:  6360
H   87.221756   38.777702   93.323257
H   24.827293   49.503948   79.124428
H   89.088318   31.467289   48.687321
H   82.544113   70.618195   91.549316
H   38.205109   82.539474   93.260284
H   29.393383   94.317833    8.598026
H   19.643047   90.794899   87.813362
H   20.002838   38.822475   24.239513
H   97.286934   74.805283   99.746773
H    1.045283    7.704089   56.737461
H    8.663315   22.150717   27.122440
H   13.096291   42.484440   40.216881
H   38.222031   76.988518   93.059990
H   40.171272   85.472572   41.239330
H   57.854561    1.926281   45.049679
H   45.802490   55.460182    5.105152
H   12.673818    2.636308   52.364235
H   37.072773   85.361572   79.054237
H   44.324642   45.164131   98.432800
H   21.168495   70.748573   49.350975
H   86.865311   23.059055   84.621361
H   72.119736   52.526978   77.665543
H    0.827116   42.896751   50.383804
H   28.121929   12.912325   34.724300
H    2.114931   81.780197   83.509926
H   17.553854   38.642258   92.351570
H   13.648609   78.100296   26.159208
H   95.903854   53.303001   77.001816
H   49.463127   26.120773   56.531281
H   44.863270   33.429985   88.990677
H   66.363533   92.369286    6.195998
H   67.331543   76.790314   10.486961
H   18.346630    3.154922   70.755981
H   46.827309   90.866745    3.815289
H   22.673462   78.128822   11.997769
H   25.501379   83.571022   99.430428
H   89.805794   71.618286    9.608407
H    1.123331   42.563091   71.248177
H   76.615601   42.842155   27.980757
H   64.151520   16.781158   38.425968
H    0.591236   74.408699   92.184547
H   64.227814   66.543884    4.649673
H   66.021454    1.639567   60.862473
H   73.235306   19.395163    2.583322
H    4.973248   80.958359    0.352173
H   96.029442   84.224106    8.999411
H   91.422165   70.716324   86.514732
H   56.579075   60.875916   62.098682
H   50.937256    5.715488   90.770767
H   59.270031   27.535582   38.840660
H   43.064884   55.626678   20.471092
H   14.218199   73.579514   56.541786
H   40.798267   58.886169   33.489544
H   29.409065    3.430951   12.465816
H   34.402733   15.964679   54.444401
H    1.517132    5.843620   76.117386
H   99.449242    6.031346   60.876381
H   52.476715   76.263893   49.736923
H   91.876923    7.494933   23.225609
H   39.324066   16.638393   82.717064
H   60.894398   82.801895   18.520802
H   73.189095   68.744095    7.582996
H    5.840373   73.288002   97.346161
H   79.770004   76.408722   54.468113
H   84.762421   52.882221   87.847832
H   10.642189   26.098503   22.236677
H   77.293625   68.241791   74.122818
H   41.037148   81.272194   70.247375
H   73.884682   92.797302   61.345989
H   59.234909   68.033134   88.340790
H   20.073814   62.666763   85.856453
H   49.555553   40.449066   22.270855
H   92.306870    3.716064   98.675354
H   90.201591   46.894360   25.263578
H   68.810661   37.708492   83.528946
H   76.013710   15.188694   67.980957
H   44.406826   75.327049    3.537085
H   30.784695   34.855263   65.680336
H   66.496361   34.837399   88.639854
H   87.624985   62.560402   73.001518
H   35.327873   95.078781   60.111240
H   18.546640   85.716385   54.926189
H   20.158798   13.479938   35.637817
H   87.707359   56.398216   82.529228
H   42.650383   51.064377   31.221619
H    4.912730   42.667870   83.440826
H   91.924736   40.928978   26.812811
H   58.315300   96.139893   29.634506
H   87.670517   40.057152   76.174202
H    4.028762   47.609432   51.570435
H   84.300041   16.853958   67.773361
H   48.874493   73.812210   54.707115
H   93.141846   18.350323   10.833140
H   61.935719   99.027046   55.644012
H   46.631996   80.039780   62.232090
H   19.231552   44.581696   38.946793
H   57.775352   32.666870   71.419861
H   26.001055    1.152408   51.203377
H    5.737426   64.266228   12.319946
H   34.255047   15.427395   85.061546
