100
TIME:    9.800, STEP:  9800
H   54.587799   23.315006   90.173843
H   29.823498   35.912022   96.025871
H   48.223850   78.955376    8.302536
H   83.121506   28.891306    2.990415
H    7.382860   58.270203   99.988533
H   76.050781   90.591026   49.273026
H   39.351971   23.080843   56.825939
H   49.625626   36.426258    8.389647
H   12.725166   44.061966   83.212730
H    7.084143   57.098484   91.430367
H   88.682831   60.565338   95.761436
H   81.802834   14.913658   95.354805
H   18.836319   68.806755   51.210320
H   69.844193   74.869545    3.023486
H   99.636787   94.648529   79.617455
H    7.485509   54.585129   19.555153
H   36.049385   30.164642   65.521011
H   10.634414   17.970695   59.808617
H   97.907532   89.474670   79.670395
H   28.486790   97.699432   83.562187
H   82.730331   80.597359   91.253632
H    1.915894   57.093628   84.717773
H   54.898079   14.927217   51.961411
H    8.496193   54.064667   79.241592
H   79.080551    8.970825    8.910789
H    1.396740   37.199509   68.659035
H   17.013649   35.102192   94.411057
H    5.646595   13.870580   90.707664
H   24.262844   38.224369   93.921402
H   76.768791   48.289597   62.460426
H    1.746137    0.841278   34.034286
H   84.535385   81.747345   92.029015
H   60.657516   51.467529   80.658348
H   92.174942   75.611198   58.892799
H   37.060951   17.672432   21.292601
H   24.534342   53.012966   88.617439
H   19.746849   45.638435   80.667068
H   58.937939   79.611122   14.000495
H   31.410725   67.891685   94.620003
H   40.142971   94.739197    9.077847
H   65.490860   92.445190   73.228233
H   74.323051   80.037308   80.260490
H   95.625946   22.276958    9.337511
H   53.589001   77.141884   38.924908
H    6.561604   45.220737   94.716431
H   51.630020   49.830822   22.974936
H   18.310390   57.799541   19.541998
H   56.785763   96.306824   74.945648
H   51.491943   20.814625   53.549393
H   31.484877   79.903679   98.316444
H   45.849964   23.743835   52.094620
H   81.408829   54.372452   30.727228
H   12.144308   78.832458   33.703415
H   49.743286   47.309868   64.263130
H   60.504372   17.429720   83.690033
H    5.801647    2.225075   59.011658
H   17.530037    6.771411   88.048927
H   96.328079   51.398170   61.129784
H   63.186016   52.857040   59.140072
H   12.320698   81.048950   84.875282
H   77.895813   22.826193   50.317654
H   51.096764   36.725052   51.937592
H   39.399975   38.576729   61.468033
H   15.988155   95.147736   61.072708
H   21.301018   78.133522    8.199655
H   99.320709   55.086540   25.637339
H    1.295629   87.173401   40.206738
H    3.412631   78.009651   34.699280
H   45.333534   45.620834   45.594563
H   29.057877   40.872341   81.057983
H   10.829447   28.604374   44.599129
H   66.259895   26.202538   74.380951
H   68.014069   33.562183   10.475704
H   14.475353   29.178627   20.870749
H   34.545876   42.745228   44.344120
H   57.338539   35.660686   36.513756
H   56.831978   77.585739   64.550865
H   92.393852    9.931511   55.668655
H   31.459021   24.733028   27.025995
H   18.924381   75.166634   76.642525
H    2.666759   30.667856   65.716087
H   76.679314    8.032998   67.134773
H   37.744911   71.008949   63.246494
H   24.373817   50.766678   68.337975
H   75.153336   35.870972   97.754303
H   25.743343   69.026268   22.325123
H   21.674761   90.812004   90.844917
H   13.638773   20.871698   93.971771
H   59.062748   48.523643   48.039436
H   99.886688    6.076187   74.541504
H   25.079702    2.602509   40.420189
H    3.399660   32.532669   20.255892
H   13.652295   21.563162   76.853630
H   91.373268    7.498166   92.239601
H   87.153915   71.905983   41.278389
H    3.361411    8.741339   61.266174
H   84.724632   30.079578   73.580978
H   19.361040   71.363281   82.139610
H   41.863518   79.120964   24.184689
H   47.926353   27.151642   53.675510
