100
TIME:    9.855, STEP:  9855
H   50.868317   18.271423   90.123489
H   28.304695   38.892559   99.493584
H   49.169247   82.912361    7.656851
H   83.130737   26.625166   99.975601
H    6.890020   62.678696   98.497215
H   75.198120   90.531441   54.720070
H   36.469624   26.794870   61.127010
H   45.302734   41.184292    3.339664
H   11.373161   38.773956   79.750893
H    5.581705   57.888203   93.583839
H   83.566864   62.778397   90.463356
H   79.703911   17.670372   91.439781
H   15.329142   65.477516   45.744812
H   67.120880   74.700020    7.209157
H    0.304862   89.735657   76.972191
H    5.273972   49.774643   14.989537
H   31.626625   33.802299   70.527878
H   11.810599   15.294409   57.902298
H   98.764389   91.781723   82.569946
H   27.005123   96.531219   87.306847
H   79.466553   75.122200   89.760635
H    7.188797   57.166641   80.034012
H   54.163750   14.480011   50.387848
H    3.385891   54.722626   75.157043
H   77.113388    4.608910    9.316769
H    1.137286   35.578110   63.483440
H   12.270931   32.815701   95.502060
H    1.005949   16.437794   92.525444
H   25.458752   43.214451   91.321457
H   78.877785   46.928360   66.832832
H    3.910835    5.773177   29.682861
H   88.008133   80.227493   86.937386
H   64.531776   47.443405   85.613182
H   94.498779   70.570763   56.575676
H   35.692162   13.508156   24.639044
H   29.315245   57.321171   88.444557
H   25.022060   43.624275   85.000870
H   56.664875   78.604881   17.881531
H   29.088985   66.693260   89.290031
H   34.962803   89.590500   13.405145
H   61.731934   94.332626   74.524010
H   69.687965   80.253830   83.066887
H   96.099274   22.606987   13.310127
H   50.077229   78.065041   44.302296
H    1.786326   43.043766   99.420334
H   50.920448   50.879864   23.198381
H   18.740498   60.790989   20.070086
H   56.789120   96.873306   78.348740
H   53.099495   16.259686   51.355217
H   32.639244   80.741234   94.471077
H   46.156284   18.457085   52.197845
H   84.081787   49.268654   27.116636
H   13.285141   79.151367   30.508972
H   48.469749   46.412308   66.690193
H   56.125252   22.249647   84.157486
H    5.870150    2.167220   57.139328
H   21.016632    5.184368   93.279869
H   92.232620   46.204155   59.713158
H   67.524010   55.181297   54.917469
H    8.691328   85.276169   83.310951
H   81.365204   20.268419   46.029591
H   49.144707   36.213120   49.448845
H   43.138340   34.830811   57.699875
H   19.764915   95.447342   59.579292
H   23.484074   73.740974   13.321601
H   95.941956   52.352318   28.889368
H   96.882881   89.075104   42.862072
H   99.613335   81.155098   37.328598
H   48.074890   41.668884   42.144894
H   30.174896   43.634678   80.941330
H    9.082687   24.861813   43.939491
H   61.730766   24.376366   78.412628
H   64.428024   30.841719    9.065372
H   13.264759   25.697697   17.602983
H   37.195335   42.826214   48.514271
H   58.638931   39.185886   32.813156
H   61.827095   72.825607   65.526054
H   94.977852    6.335371   58.706261
H   34.096313   24.571476   27.639894
H   16.227295   72.170570   71.904213
H    3.743391   31.236856   69.003365
H   80.806664    8.390092   62.533394
H   41.223953   71.928749   68.484207
H   28.157711   55.473099   63.314384
H   72.475342   32.430534   92.422653
H   24.477360   71.046303   26.144474
H   25.348085   86.813057   93.467522
H   14.523220   16.470549   93.401932
H   60.204105   45.461281   47.589607
H   95.024170    3.813194   76.507828
H   27.330526    5.572229   41.581688
H    7.469102   36.669250   21.303675
H   17.177845   23.213514   81.106865
H   96.378456   10.811662   96.424858
H   86.203064   66.979683   42.542274
H    7.904233    6.569542   58.425369
H   80.358940   33.235809   70.417908
H   19.254877   74.084915   81.035179
H   39.243431   79.358467   19.577717
H   51.342453   25.740261   48.377010
