100
TIME:    4.602, STEP:  4602
H    6.108276   99.994576   94.932755
H   73.379463   54.240631   68.277832
H   58.858879    4.990717   69.325661
H   82.249039   43.048515   87.911751
H   53.951355   41.628098   40.924789
H   56.660946   96.222404   34.497478
H   11.780050   72.087601   50.335400
H   58.178169   86.733490   85.653542
H   40.501991   43.829910   10.406944
H   49.079369   82.461266   87.898682
H   72.188202   51.413929   96.461807
H   80.195671   54.365074   65.353645
H   50.403946   83.297829   67.744141
H   27.216732   90.891212    7.453525
H   36.478798   58.958130   29.557877
H   16.487663    9.221340   51.035095
H   54.041695   86.357315   92.326561
H   99.478951   70.898796   39.997021
H   16.946091   71.414307    5.814630
H   68.529228    8.087435   29.658152
H   91.187523   98.073029   32.338341
H    3.578568   50.193207   27.375443
H   24.300697   57.194450    0.680636
H   91.465805   91.875427   65.289597
H   64.990143   21.197678   70.526649
H   25.567808   90.608734   57.666325
H   65.244316   51.178509   91.277870
H   44.238209   71.245514   18.888559
H   11.237153   66.621422   39.632545
H   77.454605   76.940056   49.234138
H   97.171944   34.725956   45.283348
H   56.330273   25.364120   73.233864
H   94.515602   31.777563   12.381459
H   72.546844   51.976868   77.876518
H   66.377975   11.044270    4.959060
H   72.681717   45.877277    4.959420
H   21.191023   36.001450   71.084946
H   73.781685   74.735146   47.191189
H   50.822018   81.148186   98.344666
H   29.736807   81.359703    0.109684
H   20.737492   14.090482   50.766827
H   18.019424   18.397764   19.006990
H   50.880558   91.096771   33.881393
H   85.490463   89.893463   30.694242
H   57.465443   50.318687   49.916401
H   18.715588   50.692921    1.855483
H   77.687790   75.110069   69.641838
H   56.485188   42.769073   53.323601
H   99.553696   51.311321   60.900497
H   22.395367    0.776732   61.793068
H   43.193516   25.350330    1.939213
H   28.780443   36.707989   71.950073
H    4.330651   48.692688   35.591915
H   70.117943   32.118767   34.889122
H   74.376770   61.896915   39.489491
H   99.324356    7.692865   35.963867
H   87.998795   56.757988   93.675850
H   83.381241   42.285789   95.017441
H   53.225800   33.215454   58.186012
H   55.333187   81.513275   32.718758
H   49.998596   64.555809   55.586800
H   35.580650   85.107315   87.128143
H   86.490364   93.250534   17.897514
H   59.051735   66.832214    2.192997
H   14.982934   93.289764   24.133516
H   18.636986   13.493681   18.289480
H   18.341467    7.466677   89.246262
H   62.474144   80.730240   86.204811
H   86.265091   19.115952   71.604187
H   23.623209   79.610352   92.042633
H   75.897972   82.279663    6.942635
H   94.511505   98.793335   93.558525
H    6.932005   90.673256   43.754219
H   28.900936   58.157001   29.718163
H   84.051888   35.200359   50.261074
H   34.452324    2.517238   86.273178
H   84.786911   27.675259   72.437447
H   48.190655   49.807613   68.592445
H   82.195198   40.001202   69.030815
H   73.834381   58.320271   24.454704
H    0.926012   76.891464   55.039471
H   86.618752   74.282120    1.960676
H    8.960428   84.080994   68.215942
H   66.758972    5.961875   43.094963
H   28.250513   61.028419    1.640211
H   45.378040   78.094673   61.360062
H   74.511894   68.750031   42.984711
H   30.031153   36.846840   47.884331
H   51.188583   37.939720   90.552376
H   59.460835   19.936241   88.727814
H   12.355521   21.926987   30.647623
H   18.799429   41.594223   21.215723
H   80.450691   65.601967   74.884262
H   92.028244   92.377914   37.107937
H   77.024666   37.510735   21.835400
H   74.027908   14.003847   29.749840
H   97.317589   31.779827   72.523636
H   23.758047   55.420959   82.394264
H   89.484558   56.687710   59.572220
H   25.059191   60.536015   54.415638
