100
TIME:    5.816, STEP:  5816
H   24.009890   88.665398   93.821304
H   39.850716   20.023726   44.823277
H   79.733337   92.330750   55.074772
H   82.452805   93.030304   21.367737
H   43.077667   38.935471    8.010153
H   37.831127   94.907188   54.724895
H   48.152981   54.062817   45.271854
H   62.760162   91.760178   74.188622
H   10.659554   27.108810   33.990158
H   15.905748   99.892509   35.437656
H   59.264877    0.262154   79.522545
H   33.860695   15.216404   78.940025
H   72.935898    9.885147   47.114677
H   67.107307   87.149330   99.839226
H   51.242561   50.518753   71.203888
H   67.675049    3.040320   50.262421
H   56.419014   66.652657    2.841771
H   25.439230   11.831818   97.913612
H   35.853695   22.341135   69.770203
H   35.823524   82.303261   12.312891
H   19.147026   77.216492   99.388451
H   19.965927   51.804810   23.992126
H    8.090919   47.321068   65.947769
H   78.668175    6.404513   75.127213
H   21.570602   24.921761   79.492348
H   20.033712   54.725021   43.506973
H   60.559662    0.711714   15.364103
H   41.804478   27.910912   59.021172
H   37.634514   76.765106   82.247101
H   24.004204   46.893852   45.743607
H   44.952126   43.587330   49.235527
H   32.982914   91.823029   60.847801
H   80.028801   42.955727   21.748167
H   23.841709   40.720970   26.731764
H   36.202103   19.274611   78.881622
H   78.212677   40.963112    1.140957
H   37.629181   91.540161   66.743385
H   23.607166   52.519878   32.860432
H   99.575562   54.695671   80.698860
H   15.391596   67.709679   95.624962
H   37.768784   55.742081   79.368141
H   10.073241   64.410583   76.875664
H   61.337452   98.376770   21.570175
H    7.973267   10.264303   49.393188
H   52.160229    2.423808   53.801373
H    3.050851   73.848129    6.789328
H   87.172165   41.132339   81.293541
H   56.550022   55.272888   28.439016
H   35.037109   50.768005   12.470756
H   47.856838   19.254591   76.884933
H   43.102238    8.145983   14.737100
H   87.779671   24.057774   92.251747
H   29.513355   55.731873   65.086327
H   42.005501   12.307599   88.461021
H   77.716209   68.292252   49.816715
H    0.839565    6.415855   94.636429
H   64.959496   21.728783    9.137474
H   92.984528   27.638472   63.748642
H   48.971642   84.509056   64.986839
H   75.222092   74.825790   98.189720
H   26.578640    8.101677   60.933643
H   92.496712   73.807571   32.198616
H   68.909813   10.409395   34.649872
H   42.414093   73.445343   69.237885
H   63.171928   96.329575   37.188160
H   44.059807   53.142448   90.070641
H   20.940056   49.435436   47.859146
H   78.614784   50.160862   44.241032
H   46.771694   31.885658   95.462524
H   48.215622   40.670219   89.486298
H   37.349174   99.679947   92.380867
H   94.411636   58.503265   82.442520
H   27.777645   30.623047   12.624352
H    2.178912   81.323936   57.586388
H   42.583584   36.932369   42.290665
H   63.155525   80.324394    4.587050
H   95.009819   22.453497   93.906960
H    5.226588   70.427513   35.635887
H   40.410755   36.435299   82.571983
H   14.303011   92.194191   19.867443
H   24.682123   89.450851   27.597361
H   77.718399   82.188416    0.432137
H   85.749748    4.383113   83.830093
H   50.280655    9.846584   32.215275
H   69.138176   85.090858   83.956482
H   17.434330   22.684708   45.663971
H   55.592216   80.482201    0.872753
H   49.566277   39.671444   35.274887
H   76.381454   70.346703   80.623421
H   52.126690   69.991379   32.125854
H   62.037346   87.478790   56.285076
H    8.624002   32.897659   44.343590
H   58.270264    2.026869   68.764786
H    9.361959   66.023140   18.962862
H   56.036781   28.767742   49.731113
H   74.299332   66.064117   67.044937
H    0.955991    1.449179    2.705598
H   27.051104   74.233078   62.123055
H   31.652100   61.920788   57.887085
H    0.466265   29.387234   37.467091
