100
TIME:    9.564, STEP:  9564
H   70.547760   44.957100   90.389908
H   36.341141   23.122807   81.146233
H   44.167240   61.976311   11.073112
H   83.081894   38.614494   15.926745
H    9.497591   39.353760    6.387175
H   79.709473   90.846703   25.900490
H   51.719860    7.144290   38.370434
H   68.174759   16.009968   30.058952
H   18.526497   66.752335   98.067162
H   13.530966   53.709873   82.190010
H   10.635040   51.069305   18.494364
H   90.809120    3.084588   12.153263
H   33.885208   83.092216   74.663132
H   81.529678   75.596962   85.064644
H   96.770332   15.729195   90.968040
H   16.975227   75.226486   39.145569
H   55.027046   14.555744   44.037003
H    5.587508   29.454521   67.989334
H   94.230835   79.575317   67.228790
H   34.844486    2.711622   67.494194
H   96.734909    4.091005   97.659943
H   79.290344   56.780334    4.815328
H   58.049019   16.845942   58.713425
H   30.424034   51.241425   96.768021
H   87.521469   27.687408    7.168769
H    2.510035   44.156784   90.866859
H   37.364456   44.913319   89.729660
H   25.559401    2.854894   82.907738
H   19.131313   16.813021    5.077211
H   67.719292   54.130539   43.698830
H   92.458717   79.677811   52.705856
H   69.634140   88.268890   13.876656
H   44.033157   68.734680   59.397606
H   82.203568   97.239250   68.835365
H   42.934303   35.540962    6.933585
H    4.019922   34.526852   89.359261
H   97.111359   54.281013   62.071125
H   68.692314   83.928810   97.346931
H   41.373096   73.034019   17.489754
H   62.370602   16.832832   90.510269
H   81.620071   84.346375   67.668175
H   94.211861   79.108398   68.218498
H   93.594940   20.860836   92.290764
H   68.657143   73.180702   15.851024
H   27.050089   54.559078   74.531326
H   54.674728   45.329479   22.016150
H   16.464840   44.963512   17.276022
H   56.771358   93.876099   60.343296
H   44.594086   40.359455   62.964401
H   26.531599   76.309807   14.817675
H   44.535572   46.428802   51.651688
H   69.939407   76.271378   46.219124
H    7.249098   77.464050   47.410904
H   55.207916   51.161217   53.848824
H   79.294777   96.747650   81.684235
H    5.507710    2.473324   67.045654
H    2.568981   13.581451   65.603432
H   13.900960   73.685219   67.208397
H   44.572063   42.883865   77.257561
H   27.893650   62.910229   91.587685
H   63.008854   33.801220   68.716881
H   59.472862   38.921707   62.616577
H   23.360229   54.652977   77.638275
H   99.782104   93.862152   67.479843
H   11.933722   96.981544   86.222054
H   13.818085   66.818840   11.683036
H   20.230961   79.013367   28.812687
H   19.715042   64.512825   23.417114
H   33.570625   62.578293   60.396778
H   24.264847   29.019403   81.558533
H   18.324493   44.663364   47.429573
H   85.694893   34.038475   57.082111
H   83.401459   45.235065   16.527309
H   19.669903   44.114254   34.892616
H   23.177984   42.397724   26.450384
H   51.758675   20.535057   52.392693
H   35.398384   98.011032   60.364853
H   81.306145   25.362114   42.634567
H   20.142645   25.426235   24.391809
H   30.497334   88.022469   96.974190
H   98.046822   28.226328   51.610680
H   58.969742    6.500961   86.879463
H   22.817213   67.062172   40.770390
H    8.137475   30.571789   89.894005
H   86.644363   50.633575   20.631430
H   31.175564   60.357727    5.936358
H    5.912829    7.971248   79.591560
H    9.843691   39.756264   96.416901
H   54.165287   61.663963   49.969612
H   20.752535   15.786484   66.104187
H   15.421595   89.858597   35.436302
H   85.938049   14.783815   15.759950
H   98.524475   14.481649   58.603386
H   69.896461   93.280746   74.281044
H   91.233932   93.044289   35.855171
H   83.868759   18.060369   73.455811
H    3.457332   16.536839   87.153427
H   19.816576   59.685665   86.878624
H   53.106071   78.101860   43.952785
H   33.268181   33.207569   76.409912
