100
TIME:    2.052, STEP:  2052
H   78.554108   33.842392   97.267349
H   44.190163   16.000555    7.439672
H   15.026861   21.532948   99.247383
H   81.821030   48.108238   27.685669
H   76.791473   37.234364   10.066992
H   96.197029   98.985008   81.962425
H   45.424587   99.897469   50.921928
H   58.603142   66.125000   19.785774
H    3.185905   89.001877   70.921989
H   18.764399   45.847038   88.043541
H    9.382980   48.809101   42.090359
H   77.522125   26.546618   46.865120
H   12.735103   37.558647   21.177090
H   53.478416   98.751015   13.397617
H    5.459473   86.734528   52.135612
H   19.018406   32.253792   62.707779
H   59.089722   17.699043   60.182846
H   44.994888   94.911720   28.407120
H   77.223686   64.439499   71.468628
H   37.233582   62.234875   56.042336
H   42.508041   51.934925    1.549938
H   59.106998   46.808342   44.531250
H   58.346870   77.933434   73.639877
H   28.388512   61.292240   54.675674
H   56.192375   23.431953   51.701981
H   37.250019   66.463364   96.838539
H   85.132759   57.179607   40.686024
H   59.399239   52.220135   34.599720
H   55.789627   35.265144   60.172997
H   79.676430   40.053146   46.516415
H   96.821602    6.058645   47.036182
H   95.321838   95.819298    9.300117
H   14.897400   18.348148   82.657318
H   64.803123   85.669266   85.304031
H   29.765808    3.804601   49.680008
H   50.968212   45.679790   13.585725
H   76.612030   29.388254   70.154907
H   79.177544   21.396664   67.244209
H   58.471695   36.703842   45.453011
H   69.917183   20.081629   99.480850
H   95.010399   26.592756   90.688766
H   47.199127    3.951431   99.206619
H   28.915915   75.805176   49.690926
H   48.324837   47.162712   81.367355
H   78.659264   50.927959   31.705717
H   51.613918    2.055531   91.502541
H   57.747364   36.435013   45.157433
H   56.349003   16.510622   95.544090
H   25.012480   62.501629   62.621239
H   68.925011   61.982151   40.144657
H   43.388065   71.536095   75.052811
H    4.856764   73.329468   39.352345
H   51.446167   33.906921   83.693108
H   29.173580   73.728371   22.365244
H   77.400909   38.394222   17.818434
H   96.133743   10.375395   22.771881
H   26.339869   30.337624   51.149757
H   73.260834   83.101334   60.701004
H   52.112915   25.470980   53.950905
H   23.608250   85.511353    5.246533
H   89.142105   83.144112   54.404804
H   26.082302    8.844160    2.506656
H   13.418266   67.222267   92.782883
H   83.946838   52.956863   71.431099
H   13.768729   96.953796   86.660095
H   75.287697   40.261971   67.515602
H   22.932962   19.306311   66.132889
H   38.620201   34.893860   64.300064
H   59.175278    2.342693   31.534630
H   71.955383   51.353622   97.412201
H   56.872383   55.781952   37.536930
H    4.770854   83.423096    6.859084
H   73.197296   16.806728    9.131550
H   85.031303   19.524565   81.252098
H   61.105095   31.563452   56.953594
H   74.170799   39.086624   57.854969
H   53.263840   48.693703   27.339849
H   28.387020   16.544992   27.764080
H   59.912231   47.491062   40.571922
H   98.891304   97.197296   44.139503
H   51.038143   50.510540    2.632366
H   95.286484   57.628677   15.190470
H   47.632931   41.506958   25.342625
H   91.328865   87.753883   76.002350
H   52.414337   20.529915   48.834015
H    4.061546   84.428505   84.280281
H    4.203176   54.155807   21.390715
H   88.988312   41.006378   74.409065
H   98.266304   79.920311   11.411631
H   84.914200   24.850143   97.572823
H    7.998962   84.233353   76.796219
H   30.114908   49.834797   72.620476
H   16.944260   89.117538   77.663345
H   45.561817   37.701580   65.173073
H   21.113842   65.924927   63.239372
H   63.408371   14.700333   61.460480
H   99.724625   85.440681   19.177124
H   14.399383   33.709229   23.203346
H   10.960705   45.695660   73.163651
H   66.677475   25.995457    0.048498
