100
TIME:    4.964, STEP:  4964
H   81.627602   66.797249   94.601334
H   63.381599   73.856598   91.101685
H   65.081787   31.033497   65.077950
H   82.309799   28.134216   68.070686
H   50.708954   70.643997   31.109333
H   51.046124   95.830223   70.348442
H   92.807350   96.529892   78.644272
H   29.725685   18.051464   52.416584
H   31.603340    9.025053   87.620811
H   39.186455   87.659050    2.072811
H   38.515839   65.979874   61.591000
H   66.380943   72.510368   39.585670
H   27.303909   61.407478   31.773926
H    9.293508   89.775429   35.002884
H   40.881172   26.622728   12.156746
H    1.931501   77.559402   20.985760
H   24.931892   10.301566   25.280851
H    7.219794   53.285458   27.447718
H   22.584389   86.598907   24.885180
H   58.775887    0.399866   54.304817
H   69.705925   62.036377   22.513138
H   38.283859   50.673767   96.547852
H   19.467476   54.250328   90.323685
H   57.831600   96.212128   38.403206
H   52.042633   92.489059   73.200111
H   23.917608   79.909363   23.626295
H   34.027336   36.129238   98.458656
H   13.694236   88.142456   30.855616
H   19.108818   99.465233   22.520947
H   91.335617   67.980644   78.012520
H   11.419139   67.186142   16.643059
H   79.187263   15.363450   39.721687
H   20.014431    5.292855   44.993279
H   87.841919   18.801636   62.625633
H   57.379898   83.679672   27.001312
H    4.150058   74.230339    3.820534
H   55.910553   22.743649   99.609238
H   58.818989   68.112251   72.736397
H   35.540752   73.260368   63.263763
H   95.640343   47.470566   28.591173
H   95.997971   26.510481   59.295391
H   85.484428   34.644516   36.011646
H   53.998676   93.267578   60.027740
H   62.374050   95.963379   66.088913
H   26.065813   36.037209   80.893211
H   14.045025   57.597523    3.327035
H   80.515915   94.796471   73.116234
H   56.504520   46.497559   75.722130
H   10.134674   21.331539   46.458832
H   29.987667    6.286604   36.475273
H   43.165897   90.401016    5.755387
H   46.373116    3.116857   48.185356
H   11.839574   50.791687   14.567167
H   61.733742   26.211189   50.863609
H   45.554199   93.624763   42.568943
H   99.777298    7.312077   23.640533
H   10.948701   46.312706   28.105263
H   56.425674    8.098917   85.693466
H   81.776665   48.510529   30.393688
H   31.446026    9.336904   22.422615
H   72.833496   47.722301   27.363548
H   22.733564   81.737869   70.750427
H   11.065869   68.548630   93.074066
H   83.908852   68.804169   92.365753
H   29.351412   64.378815   57.844868
H   96.399773   95.498039   39.693748
H   89.297150   19.981503    6.723627
H   37.468437    1.433082    3.510505
H    4.305979   93.104958   48.900017
H   30.957277   97.816406   91.280365
H   64.403191   57.649567    2.599930
H   64.661530   86.779327   20.062222
H   83.328979   72.765480   34.471672
H   20.932156   35.247532    8.209885
H    1.506573   35.716824   77.702728
H   43.011269   25.718164   61.913982
H   17.653624   96.299507   78.839394
H   65.198074   26.136219   88.582649
H   99.556129   38.937893   73.068626
H   56.081268   38.603489   93.268280
H    8.009775   80.636520   76.675728
H   13.779765   76.646255   71.690819
H   31.858850   90.134949    2.689404
H   91.665253   36.939621   10.032842
H   10.623275   38.384087   66.548286
H   37.045567   91.390175   86.498337
H   98.689049   42.429688   60.246216
H   35.858170    7.865038   44.119942
H   58.700790   17.784781   87.591682
H   27.454058    5.041634    1.669572
H   27.170036   41.473248   38.292400
H   45.584629   68.819565   28.112478
H    3.655542   76.467049    2.878303
H   27.017120   14.335546   61.514324
H   70.766335    5.083993   30.152683
H    3.927640   99.709381   11.051994
H   68.583397   52.554394   51.704880
H   25.086493   58.503174   76.599922
H   72.239624   58.248150   29.249969
H   47.543339   51.247944   19.542368
