100
TIME:    0.181, STEP:   181
H    5.082469    5.422740   98.980301
H   96.235344   14.558277   89.417969
H   82.874268   86.925911   21.214630
H   81.506989   25.193392   30.241686
H   93.549850   87.265472   60.797554
H   25.209614    1.016655   96.670158
H   43.483921   73.560402    4.606974
H    5.660055    4.261474   91.574944
H   49.178673   68.890961   88.693718
H   69.894157   18.985706   14.776720
H   83.418854   73.525482   22.314968
H   48.933399   32.763115   80.045479
H   31.749329   50.756683    7.139372
H   46.119938    4.519202   71.015068
H   82.704338   53.854156   42.072208
H   94.245926   95.905342   18.015034
H    9.514141   93.966927   89.834572
H    5.012590   85.898514   93.271286
H   48.082756   85.946304   72.897415
H   87.749886    1.737043   28.536203
H   53.535751   38.198517   52.328957
H   79.703224   44.338837    3.843268
H   83.327415   93.150154   27.172176
H    2.224660   38.852573   93.631805
H   23.109419   71.819115   37.894913
H   45.826603   22.218708   72.206444
H   46.471233   34.952938    3.558012
H   17.268692   64.887650   72.758652
H   15.106946   65.513695   48.615967
H    7.934301   86.359940   97.778038
H   23.221773   38.273521   95.089195
H   77.185852   47.509598   82.508018
H   83.107483   55.239250   14.102864
H   85.749687   57.135101   64.126045
H   76.272789   45.238022   35.749924
H   88.292137   98.704033   20.021536
H   97.159569   97.906593   22.727245
H   56.507607   55.641422   35.213886
H   42.583630   76.644173   24.778542
H   46.144993   95.238274   52.275406
H   22.872540   62.389141   46.603176
H   15.353928   19.980181   11.303845
H   12.800603   64.585342   14.547256
H   67.801422   15.805108   98.429092
H   40.954971   24.750519   71.596130
H   75.639778   66.606743   84.028084
H   37.991261   35.504848   29.169867
H   56.249081   97.245880   79.777206
H   70.318535   17.459141   37.253883
H   29.685934   33.504330   71.004654
H   43.528927   52.169876   55.328526
H   13.929372   46.943771   62.180984
H   12.633848   23.058228   92.357674
H   72.494186    4.248963   39.802876
H   26.350006   74.372818    1.942037
H   93.792709   12.341953   86.465134
H    7.727184   84.324150   73.202019
H   12.581903   59.793404    8.892712
H    4.552894   46.416641   97.587677
H   47.075630   41.700455   58.458313
H   71.118271   70.152206    0.284337
H   92.487091   26.260635   87.164932
H   86.510155   94.810295   21.140839
H   55.469093   42.779076   22.226362
H   39.506104   46.388348   12.417008
H   90.226357   33.275105   56.887997
H   73.046562   54.618710   75.800827
H   67.862846   27.889175   74.855446
H   65.925041   36.780815   48.881260
H   34.053329   57.248634    1.350149
H   16.284990   83.089119   59.976597
H   59.041866   45.518517   69.874550
H   95.189789    9.354488   57.108471
H   26.207008   37.925694   92.451241
H   70.897263   28.901239   15.118850
H   29.937109   19.172579   83.750412
H   83.388824   10.856243   94.235168
H   40.484039   38.885380   24.435822
H   70.229836   52.970448   19.706669
H   90.648880   99.096123    5.327899
H   14.423956   31.153875   90.806839
H   54.904408   45.409622   71.645569
H   29.248543   10.278451   47.139160
H   62.622192   27.649998   46.897835
H   43.517097   37.562729   30.206318
H   47.130314   15.699782   54.353291
H   79.243294   90.192741   32.173962
H   58.868912   90.802849   93.856987
H   59.439400   84.094643   26.720066
H   50.332466    1.839734   30.682203
H   31.429842   83.204666   37.284130
H   91.678795    9.119394   36.973358
H   96.897758   33.054802   32.917747
H   64.723091   24.211191   39.022549
H   53.462482   33.516850   20.246239
H    8.871490   88.584038   58.100060
H   48.235222   78.067665   26.779472
H    7.529855   17.778778   53.139275
H    0.089800   37.630512   29.890347
H   50.482220   74.054146   80.253036
