100
TIME:    0.432, STEP:   432
H   88.108315   82.404762   98.750504
H   89.253334   28.167068    5.250872
H   87.186798    4.984002   18.267479
H   81.549118   14.851553   16.483526
H   91.301666    7.384225   53.991722
H   21.317421    0.743471   21.527704
H   30.329815   90.507957   24.235735
H   85.931946   25.975628   68.530098
H   43.008614   44.758408   72.895149
H   63.034706   22.588737   24.606302
H   60.071442   83.625076   98.137352
H   39.352764   45.344521   62.178734
H   15.783206   35.570908   82.191399
H   33.691730    3.745312   90.115059
H   85.756813   31.435484   30.006090
H   84.153992   73.952034   97.180161
H   89.334404   10.565842   12.687638
H   10.376098   73.692444   84.569626
H   51.991226   96.474854   86.122253
H   80.955544   96.474365   45.659935
H   38.641052   13.209969   45.517380
H    3.770741   44.670128   82.471809
H   79.976204   91.108788   19.990051
H   78.904037   41.862919   74.991409
H   14.132959   51.913670   39.748611
H   44.678150   14.737397   48.681725
H   24.826555   24.518909    8.538656
H   96.090508   76.603485   81.054337
H   20.564713   88.286613   36.750763
H   17.558424   80.147751   17.731331
H   33.095402   60.782173   75.227043
H   93.034210   40.575462   59.271675
H    0.786622   36.874611   36.714928
H   96.354836   34.132385   53.551537
H   70.033791   26.264420   51.033363
H   10.115647   18.421534   19.157881
H   21.233768   88.714699   42.505138
H   46.134171   51.047390   52.925518
H   31.298725   71.286064    0.720921
H   22.504204   71.741493   72.023796
H    5.720081   71.002357   52.518543
H   92.795464   31.245996   23.096090
H   14.962134   66.090515   32.677238
H   51.773056   20.011358   22.970573
H   19.183022   14.847266   93.074524
H   72.434105   71.325249   85.012383
H   40.641590   49.045658   31.314642
H   56.262486   99.831100   95.307678
H   77.656731   96.671677   27.240919
H   34.950207   37.324711   53.449287
H   43.511662   27.937056   57.971821
H   26.126825   23.652237   45.702599
H   17.840364   24.513611   77.780861
H   66.684143    0.153297   50.879108
H    6.367441   96.375916    4.071856
H   94.106766   12.077932   77.920502
H   23.638985   77.081703   97.074135
H   93.891296   36.089806    2.427267
H   24.348022   57.021790   78.319168
H   30.511124   60.993904   51.322472
H   86.951309   58.479408   80.713287
H   83.578613   23.924362   75.809113
H    3.534600   77.694221    3.921076
H   72.704842   44.144455   15.410955
H   49.469734   26.340714   35.792343
H   74.806953   20.797108   71.729073
H   52.908653   63.295475   87.918808
H   50.524635   42.244125   86.854698
H   78.433678   18.745552   33.138226
H   39.137596   69.873192    0.822334
H    8.313894   66.011345   56.966251
H   38.346699   37.188362   88.250679
H   78.824387   96.939217   50.672230
H   20.682297   22.041552   77.533562
H   82.999924   29.258383   34.146900
H   35.871624   35.259544   66.860306
H    6.177382   89.101677   98.677917
H   52.276474   22.472965   38.298222
H   82.259727   52.237011   22.505409
H   78.339401   85.427010   83.704041
H   19.335720   33.750896    5.808562
H   73.737099   47.048843   50.656189
H   45.129620   14.467944   71.045746
H   79.887787   49.128391   23.971718
H   31.295370   21.861588    5.874936
H   41.350353   24.921921   71.782616
H   96.007011   71.943001   44.142574
H   62.909515   70.707069   91.248787
H   64.648140   70.119133   24.666252
H   28.141533   91.510666   39.655651
H   41.701786   96.758881   42.584789
H   10.250433   27.996290   41.755058
H   13.001976   40.574921   52.335625
H   88.982033   39.436691   55.945210
H   49.123142   11.033092   26.013195
H   29.603043   78.672112   45.135658
H   28.311968   92.472130   12.344246
H    8.451316   19.915894   49.123566
H   88.132683   38.712475    8.865803
H   66.070145   67.608330   56.078354
