100
TIME:    0.840, STEP:   840
H   60.516518   44.988991   98.376968
H   77.904091   50.289417   30.987120
H   94.196808   34.336498   13.476891
H   81.617599   98.041100   94.119621
H   87.647247   40.087227   42.928856
H   14.990669    0.299423   61.934467
H    8.946741   18.057867   56.141865
H   53.863953   61.271587   31.068008
H   32.979195    5.530783   47.212570
H   51.884682   28.445457   40.584267
H   22.120270    0.041945   58.835640
H   23.779461   65.795570   33.136375
H   89.830048   10.886297   41.639648
H   13.489801    2.487354   21.164158
H   90.718605   94.992523   10.393715
H   67.749573   38.264729   63.312973
H   56.531792   37.547531   49.834969
H   19.094528   53.851501   70.425095
H   58.344437   13.591281    7.618205
H   69.911354   87.920410   73.494530
H   14.429749   72.593292   34.445175
H   42.892567   45.208641   47.731579
H   74.528816   87.790550    8.316034
H   40.996445   46.756229   44.689499
H   99.541496   19.556187   42.760300
H   42.807362    2.581012   10.440297
H   89.644653    7.558479   16.635031
H   61.663231   95.647552   94.538956
H   29.436172   25.303202   17.465073
H   33.201885   70.049850   50.165951
H   49.144962   97.369942   42.941154
H   18.795111   29.304039   21.501045
H   29.525894    7.024216   73.470787
H   13.594092   96.741829   36.362694
H   59.892311   95.422462   75.878052
H   45.589996   50.471508   17.754011
H   60.365116   73.773293   74.654060
H   29.272171   43.579800   81.717659
H   12.956463   62.576469   61.617775
H   84.074593   33.545040    4.123121
H   77.836319   85.003700   62.133961
H   56.126762   49.558556   42.264668
H   18.476248   68.537170   62.146049
H   25.719355   26.848608   62.863777
H   83.791435   98.750015   27.988863
H   67.223289   78.995171   86.612358
H   44.949696   71.055222   34.800972
H   56.284275    4.032030   20.552336
H   89.584953   62.879303   10.965440
H   43.507275   43.534733   24.914314
H   43.480534   88.546684   62.273701
H   45.954857   85.793396   18.917015
H   26.304049   26.879333   54.084976
H   57.237698   93.498085   68.883499
H   73.888077   32.143391    7.534060
H   94.617264   11.649145   64.031219
H   49.503181   65.309120   35.878517
H   63.510437   97.559715   91.918289
H   56.524963   74.260437   46.996555
H    3.588279   92.352478   39.717979
H   12.688272   39.506935   48.902023
H   69.097900   20.126755   57.349129
H   31.209236   49.872078   75.930763
H    0.720023   46.363876    4.332525
H   65.665276   93.754448   73.789406
H   49.742744    0.514286   95.853218
H   20.173960   77.402496    7.617050
H   22.341408   65.577621    6.359458
H   98.766441   89.429291    7.548212
H   47.402061   90.392723   99.964325
H   95.357674   38.248569   52.072941
H    4.705742   23.647713   18.122061
H   52.222458   76.755867   40.210133
H   11.702262   96.222351   53.284904
H    2.672503   29.838919   65.075615
H   45.518169   61.410118   39.408260
H   43.221668   53.740349    5.897610
H   71.445053   95.794930   60.831730
H    1.814547   51.041843   27.054756
H   58.330368   63.207779   48.554382
H   27.320034   37.971844   30.192951
H    4.348541   49.713394   16.537571
H   70.944847   21.277353    9.905674
H    7.953490   84.041481   86.705360
H   11.428148   96.340698   66.323891
H   31.959057   39.909283    0.115259
H   23.256430   42.278084   63.597530
H   69.477509   38.041420   87.009163
H   73.114937   47.401970   21.327782
H   92.069290   74.720261   54.242199
H   58.398808   18.789774   51.201000
H   40.438450   58.681999   49.527702
H   39.179436   52.798859   83.899345
H   28.416880   64.186485   83.455162
H   42.069553   74.488037   35.387932
H   63.302139   62.560295   24.062050
H   95.927444   15.886064   88.879700
H    9.949347   23.389771   42.596039
H   68.696404   40.471203   74.688057
H   91.408279   57.128628   16.781851
