100
TIME:    5.027, STEP:  5027
H   77.367104   61.019814   94.543655
H   61.641640   77.270187   95.073792
H   66.165176   35.565994   64.338707
H   82.320374   25.538456   64.617683
H   50.144669   75.693726   29.401337
H   50.068958   95.761971   76.587303
H   89.505272    0.783733   83.570953
H   24.774010   23.501575   46.631939
H   30.054680    2.967763   83.655434
H   37.464760   88.563637    4.539961
H   32.655731   68.514832   55.522770
H   63.976715   75.668251   35.101189
H   23.283737   57.597832   25.513916
H    6.174197   89.581245   39.797386
H   41.647331   20.995497    9.128279
H   99.398300   72.049210   15.756033
H   19.865822   14.468457   31.015989
H    8.566976   50.220341   25.263876
H   23.565639   89.241531   28.204081
H   57.078705   99.061806   58.594154
H   65.967415   55.764351   20.803219
H   44.323730   50.757401   91.182816
H   18.626335   53.737953   88.521240
H   51.977741   96.965790   33.724060
H   49.789337   87.493164   73.665382
H   23.630419   78.047318   17.702021
H   28.594679   33.510166   99.708351
H    8.378587   91.083084   32.938278
H   20.478676    5.181019   19.543068
H   93.751373   66.421410   83.020912
H   13.898702   72.835724   11.658699
H   83.165138   13.622890   33.889458
H   24.452049    0.683588   50.668816
H   90.503769   13.028108   59.971474
H   55.813934   78.917374   30.837395
H    9.626428   79.164711    3.622374
H   61.952827   20.436279    4.573318
H   56.215298   66.959648   77.182426
H   32.881306   71.887627   57.158524
H   89.706215   41.572487   33.547970
H   91.692291   28.671972   60.779644
H   79.822350   37.472191   38.971020
H   54.541332   93.645370   64.578133
H   58.351475   97.020813   72.248947
H   20.601042   33.551758   86.284203
H   13.232122   58.799152    3.583133
H   81.008102   98.222557   73.720894
H   56.507885   47.146439   79.620216
H   11.976051   16.114063   43.945503
H   31.308979    7.245504   32.069138
H   43.161091   84.318848    6.419528
H   49.434868   97.271011   44.049347
H   13.146346   51.156982   10.908205
H   60.274963   25.183075   53.643700
H   40.538116   99.146492   43.104870
H   99.856125    7.245807   21.495865
H   14.942557   44.494881   34.097069
H   51.734512    2.149229   84.070786
H   86.745644   51.172379   25.557129
H   27.288868   14.179471   20.630745
H   76.807526   44.792728   22.451767
H   20.497812   81.151474   67.900162
H   15.342950   64.249680   88.753967
H   88.234718   69.147354   90.655594
H   31.852003   59.346905   63.711704
H   92.529564   92.366112   43.418800
H   84.242615   22.159576    9.765408
H   33.116615    5.036250    6.522269
H    7.446017   88.578178   44.948578
H   32.233604    0.984958   91.147705
H   62.402718   53.363113    1.844138
H   59.467064   84.688492   24.674797
H   79.221329   69.648933   32.856201
H   19.545475   31.260479    4.466752
H    4.543993   35.806705   82.478485
H   44.500809   29.755880   57.675114
H   23.373621   90.839302   79.953545
H   68.157928   22.016792   92.061607
H    2.577178   38.752842   73.771339
H   52.991638   35.172115   87.840759
H    9.242527   81.288284   80.441154
H   18.506920   77.057693   66.422874
H   35.843933   91.188538    8.689261
H   95.999771   42.330612    4.278877
H    7.555625   34.443222   60.441124
H   35.595440   93.704033   90.873230
H    2.896695   37.849075   63.250290
H   36.872345    2.821205   43.464813
H   60.008163   14.277164   87.076424
H   21.884024    2.449478    3.921604
H   29.748253   44.874821   39.622845
H   50.245991   73.557831   29.312666
H    7.693893   78.357338    7.750202
H   33.106499   18.156969   65.762047
H   69.677177   99.440758   31.600166
H    9.131225   97.221527    7.797861
H   63.582695   56.169857   48.081726
H   25.317686   59.039581   75.591515
H   69.238434   58.519718   23.972893
H   51.456326   49.631512   13.473367
