100
TIME:    6.748, STEP:  6748
H   60.982498    3.197020   92.968033
H   14.112831   70.529366    3.587803
H   95.760620   59.381996   44.131565
H   82.609238   54.633087   70.283203
H   34.729828   13.639296   82.739716
H   23.375286   93.897484   47.023548
H   99.308304   16.994289   18.155542
H   89.506798   72.388977   88.614723
H   87.749153   37.500778   75.325081
H   90.447609   13.275915   71.929237
H   72.572510   37.762836   89.747978
H   98.286758   61.932987   12.599209
H   13.462875   53.524609   54.506279
H   20.960392   84.276649   70.766701
H   62.567207   67.268211   26.391506
H   30.202038   21.524391   72.897949
H   81.473030   28.298702   87.685402
H   45.370228   66.481384   65.603065
H   50.366421   61.442299   18.873356
H   10.716011   62.507900   75.767845
H   63.840836   84.432587   74.088951
H    9.317673   53.042053   44.623734
H   95.646675   39.741173   39.283035
H   92.071373   17.553926    5.907813
H   88.237617   51.010574   86.375404
H   15.785131   27.171463   55.864746
H   80.191750   61.972725   33.858700
H   63.164062   71.413536   89.825424
H   57.899712   61.323284   38.189850
H   59.741261   23.827080   19.835140
H   81.632271   27.162109   75.498726
H   91.830200   66.068451   74.567909
H   45.677464   74.766685    5.710087
H   63.220924   55.308762   87.469330
H   13.017044   48.751747   35.605278
H   59.229671   13.960904   98.210823
H   27.020340   57.409302   40.181248
H   85.085091   35.461559   98.630074
H   60.239063   34.387810   90.381271
H   27.607597   80.458435   68.954086
H   74.073746   87.723701    1.325571
H   31.529388   68.065430   24.457821
H   69.360565    3.967199   88.889366
H   48.460247   25.907614   40.519279
H   71.315941   65.648178   33.555241
H   91.020775   91.624619   10.575720
H   94.453415   91.816666   90.238670
H   56.599796   64.872192   86.105942
H   62.277802   73.579994   75.294815
H   67.414795   33.442310   11.711371
H   43.038242   18.167696   24.560616
H   33.078991   37.575325   31.072182
H   48.847065   61.135925   10.954885
H   20.424843   97.100815   29.586163
H    3.508721   49.967857   57.745029
H    2.000385    5.435482   62.908951
H   24.046129   94.835518   97.778297
H   23.585546   39.622475   39.743271
H   22.477730   23.891125   93.439705
H   13.721186   46.462460   71.681419
H   85.369377   64.756485   88.268936
H   59.418221   65.132645   90.027893
H   32.181797   46.811928   70.739838
H    6.412293   78.522308   43.932743
H    0.161426   21.892319   23.981073
H   86.807251    6.810160   45.178268
H   46.164108   81.657440   92.854996
H   14.235401    3.462091   88.796021
H   93.220741   64.918091   37.010143
H   67.095421   87.546806   87.523773
H    7.752449   36.267654   81.203011
H   17.563948   27.572174   50.679436
H   67.008957   84.522980   88.729065
H   81.658440   22.338875    2.210888
H   87.519157   38.262051   12.942097
H   85.184425   40.056377   41.874458
H   79.645111   41.744518   10.418322
H   49.013638    9.484659   87.106300
H   85.104210   33.697720   92.967674
H   68.596786   41.424538   39.574883
H   42.920799   99.092819   83.301483
H   47.660942   88.232559   22.467106
H   44.701859   19.968420   72.589371
H   14.401685   89.599876   47.091068
H   23.757708   26.793655   93.609550
H   95.983322   56.921257   10.384871
H   17.838457   12.718137   45.314095
H   64.555412   65.093262   25.611588
H   95.722275   18.454504   73.000862
H   69.725662   31.645046   65.439301
H    0.178584   37.804398   75.967209
H   77.582565    2.993806   62.098747
H   18.013126   29.992809   40.837776
H   99.435432   22.566126   81.806305
H   39.924171   45.285378   71.148224
H   51.278732   29.259939   18.906204
H   26.977621   54.933533   49.105835
H   25.252123   20.350708   43.415077
H   87.254021   65.941704   79.821709
H   58.354076    5.470840   47.684704
