100
TIME:    6.090, STEP:  6090
H    5.480852   63.538139   93.570450
H   32.283272   34.872219   62.100880
H   84.445221   12.043117   51.857563
H   82.498795   81.741852    6.348533
H   40.623474   60.897781    0.581251
H   33.581234   94.610344   81.859703
H   33.793652   72.564461   66.699013
H   41.224304   15.464843   49.030849
H    3.924109    0.764619   16.742746
H    8.420877    3.827030   46.165867
H   33.778061   11.286835   53.129333
H   23.402153   28.950657   59.436089
H   55.451340   93.315575   19.888603
H   53.540260   86.304787   20.691463
H   54.574745   26.043972   58.033077
H   56.658356   79.075294   27.518074
H   34.385628   84.776894   27.785070
H   31.298773   98.499847   88.414589
H   40.120312   33.836540   84.206879
H   28.442131   76.483437   30.968103
H    2.887483   49.939167   91.950615
H   46.234573   52.168549    0.658545
H    4.432356   45.092644   58.108566
H   53.209736    9.682344   54.777782
H   11.771373    3.191490   81.515907
H   18.784666   46.624512   17.741547
H   36.931259   89.322830   20.801313
H   18.685543   40.700310   68.078171
H   43.592308    1.624749   69.294647
H   34.510029   40.112419   67.526138
H   55.736778   68.156792   27.557518
H   50.283512   84.251404   35.482231
H   99.327873   22.908747   46.432251
H   35.419380   15.610444   15.189322
H   29.391003   98.561806   95.566772
H    2.031250   62.423714    0.279260
H   63.908279   81.505981   88.333595
H   12.282551   47.504879   52.195042
H   88.011169   48.725334   54.145912
H   89.583496   42.058018   17.182562
H   19.043221   65.143105   85.823463
H   86.981873   65.485077   90.864983
H   63.697575    0.019873   41.361053
H   90.476974   14.863302   76.183311
H   28.393696   91.612350   77.247910
H   99.514854   79.074265    7.902495
H   89.312790   56.033096   83.923332
H   56.564655   58.095001   45.392597
H   43.045639   28.076126    1.540323
H   53.603497   23.425047   57.720337
H   43.083424   81.693115   17.625290
H    1.095781   98.632599   74.265480
H   35.197300   57.320618   49.171841
H   35.660973    7.836640    0.552164
H   55.900230   92.303207   52.147572
H    1.180847    6.127634   85.308823
H   82.331169   13.822541   35.197212
H   72.581696    1.761848   56.691269
H   70.581299   96.085991   43.952690
H   57.140457   95.885025   90.396507
H   43.862843   95.359268   39.571293
H   82.771919   71.257217   19.800133
H   87.510674   91.712074   15.860870
H   61.230270   74.937927   61.799427
H   74.046631   74.446701   62.704243
H   27.227768   39.521049    6.271856
H   98.955917   58.907284   61.087540
H   59.687813   65.830910   57.339817
H   60.428631   12.197762   78.278992
H   53.765778   54.452583   88.909332
H   28.648300   81.037277   89.094673
H   71.818008   49.409790    2.502663
H    9.911579   17.070633    5.598335
H   96.146568   63.981533   41.305931
H   55.793163   37.323284   63.061417
H   69.632027   97.884209   86.149597
H   19.887127   98.704933   98.752632
H   18.099606   52.510979   50.768684
H   53.549259   35.630474   85.628227
H    0.866208   77.268349   96.262321
H   30.044138   92.285507   43.973698
H   98.284286   83.965302   77.512383
H    3.079939    8.965072    9.923752
H   69.130852   33.293968    7.190273
H   55.796898   67.953316   57.395172
H   11.127430   32.749275   64.691284
H   73.892052   60.560173   13.938208
H   53.972954   17.745352   32.433960
H   82.067490   55.090569   78.382454
H   27.900595   58.718670   41.919632
H   73.250542    2.274844   62.071453
H   28.897226   53.505356   49.563454
H   75.834259   10.248593   89.953629
H   35.842503   82.646431   37.438293
H   51.299812    4.223761   56.027561
H   96.930588   55.243927   52.892563
H   79.206932   17.173014   86.947662
H   26.522219   87.791763   56.623070
H   18.599304   63.101894   34.935989
H   17.485102   22.355991   11.071025
