100
TIME:    5.642, STEP:  5642
H   35.776527    4.621979   93.980606
H   44.656319   10.594579   33.851368
H   76.741119   79.812286   57.117817
H   82.423599    0.198901   30.905266
H   44.636169   24.988604   12.727808
H   40.529964   95.095695   37.492428
H   57.271679   42.312984   31.664827
H   76.436218   76.706161   90.163933
H   14.936806   43.838150   44.943481
H   20.659323   97.394127   28.624311
H   75.449936   93.260849   96.283745
H   40.502251    6.494964   91.325737
H   84.039230   20.407692   64.404228
H   75.722878   87.685646   86.598595
H   49.126503   66.061295   79.567230
H   74.671051   18.259232   64.705780
H   70.411018   55.144123   87.001862
H   21.718206   20.298042    3.945421
H   33.144238   15.041133   60.602879
H   40.510979   85.999062    0.466251
H   29.472435   94.537903    4.111153
H    3.284378   51.573822   38.809845
H   10.414401   48.736198   70.925949
H   94.834648    4.322970   88.049240
H   27.793327   38.721275   78.207314
H   20.826902   59.869141   59.868591
H   75.563538    7.944875   11.911570
H   56.485462   19.789177   53.269051
H   33.851097   60.978306   90.472382
H   17.332779   51.200310   31.910908
H   38.103477   27.984879   63.001854
H   21.996403   96.631287   76.955864
H   67.773186   55.686592    6.072873
H   16.489269   56.667076   34.061821
H   40.527145   32.428268   68.285400
H   63.086979   27.334618    1.688183
H   20.940556   97.912231   53.032818
H   30.798313   55.704586   20.582249
H    6.920426   58.487053   97.560951
H   31.780428   83.998283   81.935631
H   49.660660   49.772247   75.268776
H   24.737103   63.728767   67.991936
H   59.838688   97.333344    9.002114
H   19.083477    7.343734   32.381088
H   67.253029    9.288699   38.911968
H    5.296211   70.529343    6.082427
H   85.812790   31.669792   79.623528
H   56.540730   53.480743   17.672873
H   29.951401   65.178284   19.411835
H   44.207500   16.606199   89.055588
H   43.114185   24.945017   12.902806
H   79.323402   40.204006    3.674079
H   25.903843   54.722961   75.191368
H   46.034508   15.146821   80.782677
H   91.570152   53.043461   48.336536
H    0.622827    6.598886    0.559804
H   53.929062   26.749443   92.588509
H    5.940911   44.070625   68.230331
H   35.249123   77.157280   78.344292
H   86.705093   61.452152    3.138680
H   15.602097   16.193218   74.500542
H   98.672310   75.427139   40.072105
H   57.096813   22.283194   46.581573
H   30.465218   72.497498   73.961182
H   56.264870   10.226585   20.984064
H   54.748955   61.792534   79.782402
H   34.900726   43.420467   39.458633
H   90.634102   40.209812   35.922825
H   38.099041   44.388191    6.375300
H   44.691071   31.917923   89.852692
H   42.874290   11.519039   94.467720
H    8.758873   64.277954   69.703690
H   39.122833   39.229324   17.086128
H    6.008831   92.336998   67.925072
H   34.195019   36.684124   29.100334
H   59.041557   69.173271   16.294790
H   79.212395   37.534969   90.829781
H   97.051743   81.804314   26.026011
H   32.067326   36.946392   80.631157
H   22.835285    1.672591   34.857819
H   21.277048   87.650742   17.198275
H   64.658310   81.060028   14.987422
H   74.744652    1.473439   67.260056
H   38.310455   94.956955   48.106953
H   77.610374   95.973824    0.823872
H   21.439442   16.293388   33.580933
H   43.971153   93.133415   92.575775
H   46.767876   53.595745   37.078979
H   72.770615   80.034904   82.046516
H   67.510956   77.149338   25.905798
H   54.916557   78.082642   52.610516
H   95.749763   19.811640   41.028786
H   47.116486   96.806587   55.309101
H   92.545479   55.466747    7.230525
H   59.044930   44.354092   45.732639
H   59.927658   72.935333   76.032211
H   14.767118   91.463661   12.712735
H   27.386965   65.622818   65.616356
H   39.941101   61.170742   72.461098
H   89.657684   33.852055   54.229618
