100
TIME:    3.060, STEP:  3060
H   10.387201   41.403679   96.344498
H   16.150856   70.654373   71.023880
H   32.353401   94.053146   87.419502
H   81.990219    6.577562   72.435242
H   67.762909   18.029995   82.735916
H   80.570076   97.892967   81.788200
H   92.596062   67.964653   29.748924
H   79.376328   53.330059   27.234776
H   78.407295   92.086777    7.470318
H   91.219902   60.320427   27.516024
H   15.621277   89.368423   44.994579
H   39.049606   77.072739   75.115044
H   48.615181   76.573059   20.990116
H    3.568007   95.644081   90.107033
H   17.721664   96.696091    3.680057
H   78.488190   44.090363   79.034523
H   78.040108   84.365814   51.952221
H   66.534874   45.892921   93.458679
H   92.927544    6.722558   24.575289
H   10.078674   40.832409   24.671625
H   82.691986   51.585320   74.187622
H   55.745529   48.146179   58.691010
H   44.888618   69.735435   44.800766
H   34.734375   73.381592   79.811745
H   20.140907   43.486473   59.138626
H   32.628071   36.431606    2.357962
H   98.211258   15.275958   60.688831
H   74.347374   99.270180   67.921196
H   77.707352   26.718927   12.524668
H   18.327457   15.105323   26.649487
H   36.485180   96.452057   67.281487
H   58.967445   67.964561   15.984505
H   85.899872   44.597786   73.465919
H    7.393065   93.292091   42.837479
H    4.707283   27.607727   11.061852
H   38.609737   24.863516   10.121186
H   73.292213   92.471176   49.581295
H   37.515686    2.947587   38.376865
H   15.908055   14.745089   47.775284
H   74.975052   25.716047   78.789223
H   26.122137   61.177219   14.438098
H   56.605797   49.193802   46.562210
H   37.598408   81.849854   22.500942
H   83.957733   64.058563   79.924156
H   91.223305   11.160513   17.963419
H   38.609402   21.281605   95.593849
H   65.640915   91.250397   54.834785
H   56.402836   26.888857   57.913383
H   54.474518   79.020012   22.408899
H   90.058311   77.317879   69.643097
H   43.311161   74.220154   85.680984
H   53.842670   79.794434   73.179405
H   72.353371   39.751648   25.148903
H    5.833126   57.283089   66.845856
H   97.151077   26.754646   26.374567
H   97.394974    9.316038   88.457184
H   90.242805    1.251488   47.018959
H   98.202629   87.908142   34.738113
H   31.612396   68.061172   76.566032
H   57.089195   62.990986   76.576912
H   52.728035   36.267803   75.813553
H   90.309227   99.460037   56.900841
H   81.804192   98.473808   23.637100
H   53.164925   58.440140   44.062946
H   53.780285   16.446579   80.533409
H   13.364439   90.151253   27.115200
H   42.059334   54.153049   14.798976
H   68.990608   92.541321   12.488296
H    9.411102   29.914238   68.315926
H   92.381165    2.051050   95.289642
H   24.863956   87.197060   25.442268
H   21.656458   49.969727   80.661102
H    7.473456   66.944572   83.289055
H   62.851704   55.737602   21.343651
H    9.707160   33.000393   33.367222
H   97.995750    3.689471   90.030487
H   44.783337   61.327293   45.167271
H   75.744690   50.635395   83.432419
H    8.251948   44.530544   51.822754
H   49.457222   42.299969   57.299454
H   70.761459   60.938763   62.877735
H   70.920273   64.211685   30.902636
H   11.404999   58.333618   21.349644
H   60.672169   74.009735   83.933044
H    3.332180   57.480923   51.119713
H   80.866028   21.452503   54.278927
H   71.525200   80.865990   69.455902
H    5.213884   60.303375   63.919380
H   19.186718   23.796118    3.165004
H   95.793030   83.378738   33.605728
H   49.250427   38.662907   98.083328
H    4.700448   25.635324   91.831169
H   81.606598   19.331678   55.638939
H   42.988766   98.843803   33.139046
H    3.683722   75.633911   86.402946
H   46.665054   74.895393    9.396027
H   19.713985   43.287594   61.206230
H   18.099310   42.291748    7.073734
H   62.942101   50.040752   88.729424
H   29.279390    0.110812    2.959598
