100
TIME:    5.506, STEP:  5506
H   44.973793   17.093586   94.105118
H   48.412422    3.224698   25.276031
H   74.402374   70.027740   58.714680
H   82.400772    5.802437   38.360329
H   45.854309   14.087603   16.415142
H   42.639400   95.243034   24.023680
H   64.398994   33.129208   21.029451
H   87.125549   64.939804    2.650550
H   18.279945   56.913956   53.504700
H   24.375479   95.441368   23.298323
H   88.100327   87.788559    9.384064
H   45.693352   99.678185    1.006475
H   92.717697   28.632210   77.917900
H   82.456886   88.104836   76.249596
H   47.472572   78.209488   86.104095
H   80.139191   30.154251   75.994843
H   81.347298   46.149189   74.621246
H   18.809820   26.915321    8.659746
H   31.026260    9.335383   53.438267
H   44.174736   88.887733   91.206734
H   37.542870    8.077042    7.802406
H   90.245926   51.393280   50.391510
H   12.230456   49.842278   74.816940
H    7.470837    2.696017   98.149216
H   32.657135   49.507103   77.202919
H   21.446867   63.889832   72.657684
H   87.290466   13.598484    9.213037
H   67.960609   13.441154   48.773140
H   30.893944   48.639194   96.901337
H   12.118139   54.566277   21.099659
H   32.750511   15.789479   73.761742
H   13.409323    0.389364   89.546074
H   58.193455   65.637154   93.820915
H   10.742772   69.130699   39.791435
H   43.907639   42.708786   60.003799
H   51.264591   16.682121    2.115892
H    7.896399    2.892963   42.316509
H   36.418980   58.193783   10.985373
H   12.661220   61.450432   10.740156
H   44.589581   96.729607   71.235924
H   58.955460   45.106171   72.064674
H   36.772575   58.971497   61.471653
H   58.667240   96.517792   99.178749
H   27.767132    5.060889   19.083769
H   79.050514   14.654376   27.274061
H    7.051178   67.935349    5.529906
H   84.750290   24.273277   78.318230
H   56.533466   52.079987    9.257957
H   25.976364   76.442444   24.836914
H   41.355145   14.536192   98.568283
H   43.124546   38.075058   11.469106
H   72.713905   52.824306   12.602547
H   23.082615   53.934387   83.089561
H   49.183617   17.366142   74.781212
H    2.398612   41.124577   47.179615
H    0.453426    6.741945    5.189575
H   45.307663   30.673637   79.653816
H   16.067604   56.914009   71.733261
H   24.523474   71.411064   88.784599
H   95.680313   50.998356    7.006844
H    7.022980   22.517895   85.104790
H    3.498884   76.693008   46.226097
H   47.863232   31.563986   55.907501
H   21.126320   71.756653   77.652954
H   50.866249   21.088676    8.318629
H   63.103691   68.553520   71.741020
H   45.812103   38.719112   32.892715
H    0.028514   32.431980   29.421240
H   31.320417   54.160286   14.905131
H   41.936249   25.077560   90.139069
H   47.192772   20.772461   96.098824
H   19.972542   68.791504   59.746460
H   47.990143   45.956070   20.573494
H    9.002300    0.944843   76.005882
H   27.638094   36.490093   18.790245
H   55.826042   60.457031   25.445883
H   66.864983   49.323116   88.424629
H   90.662216   90.696526   18.514841
H   25.546024   37.345867   79.114189
H   29.503407    9.080779   46.574371
H   18.615610   86.243759    9.070033
H   54.451393   80.178070   26.364138
H   66.142967   99.199158   54.307987
H   28.954268   83.319260   60.528034
H   84.232323    4.480493   14.007341
H   24.569874   11.297873   24.136719
H   34.888023    3.021772   86.090790
H   44.580620   64.479065   38.489075
H   69.948349   87.607292   83.158821
H   79.534637   82.744064   21.044134
H   49.350883   70.738525   49.738445
H   85.687141    9.583358   38.437904
H   38.398590   92.726753   44.792011
H   79.401192   47.215771   98.060341
H   61.396126   56.536526   42.607395
H   48.694626   78.305939   83.056747
H   25.561796   83.658852   20.534256
H   27.075491   63.117981   67.924416
H   46.419861   60.584499   83.851845
H   81.209564   37.341496   67.331100
