100
TIME:    0.524, STEP:   524
H   81.886635   73.967873   98.666275
H   86.694191   33.155231   11.054042
H   88.767487   11.602784   17.187248
H   81.564560   11.060919   11.440536
H   90.477631   14.758431   51.497154
H   19.890800    0.643340   30.638773
H   25.508083   96.719810   31.430254
H   78.700928   33.934521   60.083054
H   40.747078   35.913010   67.104439
H   60.520485   23.909370   28.209177
H   51.513824   87.326920   89.275108
H   35.841137   49.956032   55.629967
H    9.931254   30.004807   73.046989
H   29.136372    3.461655   97.115852
H   86.875648   23.217939   25.583742
H   80.454956   65.905403   89.543442
H   81.937737   16.649948   21.063883
H   12.341956   69.218506   81.380173
H   53.423813    0.333971   90.969604
H   78.465187   94.545532   51.936363
H   33.181641    4.050858   43.020706
H   12.592450   44.791557   74.638557
H   78.747871   90.360558   17.357559
H   70.356247   42.966312   68.159073
H   10.842783   44.617374   40.428055
H   44.256306   11.996285   40.058830
H   16.893282   20.694584   10.364309
H   88.327446   80.897736   84.094986
H   22.565140   96.633659   32.401764
H   21.085844   77.870773   25.044823
H   36.714420   69.032356   67.946892
H   98.843170   38.033867   50.754768
H    7.267128   30.143446   45.003014
H    0.241991   25.701111   49.675621
H   67.746986   19.309952   56.635262
H   18.114899   25.648691   18.841322
H   30.057758   85.345558   49.754406
H   42.331955   49.363522   59.417431
H   27.162754   69.322136   91.903549
H   13.838844   63.129055   79.261833
H   99.433060   74.159523   54.686726
H   84.527031   35.375298   27.418417
H   15.754409   66.642212   39.322166
H   45.898117   21.553091   31.965828
H   11.202721   11.217544    0.947127
H   71.259117   73.054741   85.373161
H   41.613026   54.008823   32.100777
H   56.267399    0.778412    1.000114
H   80.346428   89.051804   23.571012
H   36.879742   38.725010   47.014931
H   43.504642   19.054808   58.941853
H   30.597605   15.115326   39.662712
H   19.748842   25.047058   72.437965
H   64.554565   98.652565   54.938923
H   99.043289    4.441030    4.852549
H   94.221878   11.981245   74.788605
H   29.471107   74.427101    5.824175
H   87.040710   27.401634    0.057459
H   31.603607   60.908936   71.256607
H   24.440353   68.065186   48.705772
H   92.754654   54.201302   73.539825
H   80.313354   23.068039   71.646820
H    9.775055   71.420601   97.609474
H   79.021980   44.644913   12.912878
H   53.121742   18.992828   44.360489
H   69.155220   16.223499   77.168831
H   45.527428   66.476349   92.360458
H   44.169594   47.505600   91.252831
H   83.018517   12.135017   27.367870
H   41.001152   74.500145    0.628871
H    5.392296   59.751286   55.862858
H   30.761160   34.135078   94.986153
H   72.825912   92.388069   48.313129
H   18.657303   16.219606   72.065727
H   87.435959   29.389288   41.121021
H   38.046825   41.156242   60.669888
H   14.530414   81.128044    0.306233
H   56.598801   16.457294   43.379307
H   86.669090   51.967625   23.531242
H   73.827560   80.416817   75.778137
H   21.136105   34.702679   11.307104
H   80.639626   47.649673   42.962616
H   50.950512   16.003534   79.808319
H   86.216156   57.000950   15.568520
H   26.815466   16.106674   96.956642
H   39.232708   28.301239   78.171349
H    2.151497   65.253853   48.529476
H   64.390533   63.341286   90.292793
H   66.557320   64.996635   23.913460
H   20.007515   87.724594   42.944775
H   45.466801    1.726819   44.527660
H   17.057650   34.915459   43.507713
H   18.904640   43.331299   59.452934
H   97.873756   45.017532   62.147938
H   47.532627    2.792090   28.126980
H   37.201859   75.039055   40.383766
H   21.009706   97.751854    7.053132
H    8.789107   20.699219   47.651672
H   83.749992   39.109051    1.159517
H   71.783646   65.245720   47.217514
