100
TIME:    7.742, STEP:  7742
H   93.762688   12.042779   92.057999
H   86.661880   24.391232   66.264481
H   12.848833   30.893902   32.460377
H   82.776077   13.679852   15.796902
H   25.824030   93.312782   55.787537
H    7.958779   92.820610   45.462509
H   47.211292   84.114624   95.887634
H   11.380363   58.382351   97.348473
H   63.314735   41.931717   12.755184
H   63.298256   27.548647   10.849266
H   80.113052   77.758835   94.001038
H   60.352768   11.756918   41.844643
H   50.068123   93.373245   55.727528
H   71.743736   81.212868   46.410336
H   74.640327   78.479233   78.588409
H   90.233643   34.585449   90.386993
H    1.541365   94.044556   78.173157
H   66.626175   18.113068   31.150242
H   65.845490    3.138001   71.239288
H   83.933701   41.402691   43.443947
H    4.855453   85.476685   47.111187
H    4.613419   54.361603   59.975464
H   82.375343   31.657198   10.841990
H   99.714111   29.445040   32.085205
H   52.685616   72.181534   93.716347
H   11.103176   97.869308   62.326775
H   94.477432   20.650633   53.583691
H   79.293877   17.810080   22.681196
H   79.513023   51.506641   91.204185
H   97.856522   99.224594   98.855858
H   20.751322   16.296062   96.856682
H   54.591854   38.607601   82.548363
H   15.692682    2.041272   95.257454
H    5.219245   64.214607   45.592590
H   88.278572   73.491997   96.080612
H   45.636280   91.815155   95.086372
H   22.357872   21.006788   18.504484
H   44.000740   17.268459   68.771736
H   18.278904   12.732370   94.055351
H   33.983826   87.403198   47.159378
H    6.141112   21.830145   24.742643
H   47.760399   71.963409   75.202049
H   77.914886    9.929821   60.685078
H   84.990768   42.591576   37.707157
H   85.094429   26.432972   18.613934
H   78.189293   10.581870   14.613997
H    2.220390   45.874825   99.778862
H   56.660152   75.110077   47.608624
H   91.337776   91.258064   35.642235
H   88.284912   48.571629   42.211861
H   42.969990   22.203547   35.038483
H   81.389542   45.338871   65.822723
H   69.464912   66.899475   53.227638
H   97.407715   80.887039   73.449600
H   24.365585   37.076698   66.198792
H    3.238411    4.389891   29.070847
H   87.061188   66.154274   92.315987
H   49.570236   45.751228   14.138469
H    0.868959   65.896446   17.132599
H   48.125916   22.863758   43.409691
H   48.072186   18.533104   10.769441
H   24.139229   55.880630   45.053841
H   99.664406   78.982697    2.578278
H   74.669853   83.937012   16.942646
H   39.616119   42.503803   16.547724
H   25.744347   57.395561    3.951429
H   66.413330   16.023960   40.846539
H   45.572929   60.310722   36.314972
H   42.762985   93.495598   74.668762
H   87.260750   37.504650   85.422943
H   76.188774   68.636505   69.281563
H   35.732685   94.534569   23.532019
H    2.197712   35.361546   63.247753
H   59.773586   59.427189   43.149780
H   35.410431   39.714878   88.305420
H    8.680821    3.761896   74.990242
H   69.921593   55.711617   28.046442
H   95.713562   44.491604   42.001881
H   32.770142   30.778027    4.057043
H   19.850235   87.275688   53.940956
H   62.377480    9.376901   42.711670
H   22.250313   94.678635   39.308506
H    7.573115   36.591709   67.252914
H   82.786232   74.658813   56.304317
H   75.358994   64.610802   97.253044
H   73.111130   93.430267   79.411118
H   84.225456   40.446007   92.711708
H   80.541679   85.551697   15.305450
H   16.352352   63.110008   64.871223
H   81.842224   90.748306    0.976003
H   40.857258   91.477547   96.958664
H   51.128498   77.751907   81.041862
H   81.730682   59.819180   17.705324
H   95.500679   82.871056   48.829922
H   22.737648   56.249260   93.990082
H   33.379074   90.009338   67.564522
H   48.078575   11.977111   91.938927
H   23.333467   69.532219   23.460955
H   39.901909   70.234032   96.562935
H   20.097200   79.960556   51.929462
