100
TIME:    5.328, STEP:  5328
H   57.011391   33.416512   94.268082
H   53.328499   93.579559   14.052573
H   71.341370   57.221497   60.804691
H   82.370895   13.136490   48.117790
H   47.448639   99.820206   21.240910
H   45.400280   95.435875    6.395557
H   73.728676   21.109264    7.109609
H    1.116002   49.540997   18.994190
H   22.655525   74.027878   64.709740
H   29.239271   92.885551   16.327543
H    4.657440   80.626297   26.529900
H   52.487587   90.755913   13.676313
H    4.076248   39.396187   95.604912
H   91.270515   88.653481   62.704453
H   45.307869   94.109329   94.659698
H   87.296021   45.722733   90.770233
H   95.660957   34.376408   58.417206
H   15.003345   35.575893   14.829966
H   28.253838    1.867703   44.061054
H   48.969948   92.668495   79.087654
H   48.105644   25.798004   12.633606
H   73.180893   51.156982   65.549866
H   14.607352   51.289940   79.909561
H   24.009632    0.566622   11.369082
H   39.023590   63.623848   75.888344
H   22.258291   69.150879   89.396790
H    2.639071   20.997833    5.681024
H   82.980446    5.132713   42.888786
H   27.023552   32.489475    5.315372
H    5.293009   58.971733    6.949630
H   25.745029   99.828171   87.844536
H    2.170500    5.306971    6.024381
H   45.654743   78.660683   77.785271
H    3.221650   85.443382   47.290489
H   48.332108   56.164169   49.165344
H   35.791172    2.740141    2.675663
H   90.823608    9.412182   28.290752
H   43.775440   61.451702   98.424568
H   20.175060   65.328972   27.989202
H   61.354488   13.393482   57.231236
H   71.120712   38.999100   67.871071
H   52.770195   50.982193   53.110249
H   57.134022   95.450378   86.320900
H   39.132504    2.073057    1.680135
H   94.491341   21.676826   12.041694
H    9.348219   64.540268    4.806754
H   83.359665   14.592546   76.609825
H   56.523960   50.246643   98.244408
H   20.773743   91.185242   31.937386
H   37.621914   11.826918   11.017601
H   43.138126   55.259598    9.592645
H   64.063240   69.341614   24.288414
H   19.390125   52.902283   93.426903
H   53.305244   20.270973   66.926353
H   16.571648   25.525141   45.665409
H    0.231716    6.929184   11.249115
H   34.023773   35.809715   62.724586
H   29.321320   73.723732   76.317978
H   10.485361   63.890259    2.449161
H    7.426643   37.316181   12.069588
H   95.794556   30.795780   98.983879
H    9.815886   78.349808   54.280586
H   35.778103   43.710251   68.113495
H    8.903350   70.787018   82.484833
H   43.800407   35.305393   91.742149
H   74.038567   77.402458   61.216270
H   60.093170   32.565868   24.298477
H   12.324475   22.251520   20.911810
H   22.448393   66.950233   26.069481
H   38.330673   16.124733   90.513885
H   52.844902   32.883392   98.233650
H   34.649353   74.698944   46.713425
H   59.595886   54.760193   25.137840
H   12.920223   12.210297   86.582237
H   19.056009   36.236141    5.296192
H   51.617500   49.048203   37.422741
H   50.703281   64.751656   85.276711
H   82.299454    2.335016    8.684299
H   17.010792   37.868710   77.128746
H   38.231285   18.776886   61.909271
H   15.132341   84.402267   98.431526
H   41.092484   79.023453   41.253769
H   54.883781   96.222351   37.355671
H   16.708212   68.087570   76.786102
H   92.899284   15.614659   31.262459
H   28.667057    4.759627   11.775794
H   22.999807   15.963928   77.603088
H   41.717850   78.722382   40.334755
H   66.254501   97.518211   84.614632
H   95.271515   90.066574   14.681145
H   42.066399   61.126781   45.979412
H   72.516945   96.196213   35.046898
H   26.988405   87.386971   31.026997
H   62.197784   36.416698   86.058052
H   64.473427   72.480461   38.517002
H   33.992569   85.335114   92.250626
H   39.690453   73.443733   30.771103
H   26.422277   61.602417   70.773567
H   54.899414   59.817211   98.760323
H   70.152466   41.908558   84.477615
