100
TIME:    5.810, STEP:  5810
H   24.415628   89.215630   93.826797
H   40.016426   19.698576   44.444935
H   79.630157   91.899078   55.145222
H   82.451797   93.277496   21.696617
H   43.131409   38.454544    8.172831
H   37.924191   94.913689   54.130672
H   48.467419   53.657650   44.802647
H   63.231750   91.241074   74.739494
H   10.807045   27.685684   34.367859
H   16.069651   99.806358   35.202732
H   59.822983    0.020737   80.100517
H   34.089714   14.915665   79.367119
H   73.318771   10.247993   47.710869
H   67.404396   87.167824   99.382652
H   51.169594   51.054703   71.492279
H   67.916290    3.565112   50.760468
H   56.901497   66.255775    2.295568
H   25.310919   12.123756   98.121620
H   35.760265   22.089411   69.454071
H   35.985161   82.430702   11.904383
H   19.503075   77.813782   99.551323
H   19.390701   51.796844   24.503082
H    8.171039   47.369865   66.119431
H   79.225639    6.332736   75.572800
H   21.785179   25.397606   79.448036
H   20.061064   54.902405   44.071167
H   61.077072    0.961135   15.245050
H   42.310719   27.630852   58.822823
H   37.504051   76.220734   82.530731
H   23.774155   47.042351   45.266617
H   44.715965   43.049320   49.710228
H   32.604069   91.988831   61.403252
H   79.606194   43.394722   21.207640
H   23.588177   41.270836   26.984518
H   36.351242   19.728186   78.516235
H   77.691101   40.493172    1.159827
H   37.053726   91.759888   66.270607
H   23.855137   52.629696   32.437046
H   99.828796   54.826408   81.280312
H   15.956728   68.271355   95.152916
H   38.178848   55.536224   79.226784
H   10.578898   64.387054   76.569328
H   61.285770   98.340790   21.136787
H    8.356380   10.163595   48.806564
H   52.680660    2.660526   53.287945
H    3.128279   73.733688    6.764952
H   87.125290   40.806046   81.235954
H   56.549702   55.211090   28.067770
H   34.861740   51.264908   12.710109
H   47.730999   19.163267   77.304611
H   43.102650    8.725260   14.673848
H   87.488075   24.614529   92.645607
H   29.388889   55.697083   65.434776
H   42.144432   12.405503   88.196251
H   78.193932   67.766464   49.765675
H    0.832091    6.422167   94.840683
H   64.579094   21.901909    8.566814
H   93.431305   28.205114   63.903183
H   48.498451   84.255547   65.447441
H   75.618057   74.364639   98.360374
H   26.200138    8.380695   61.401432
H   92.709663   73.863419   32.470116
H   68.502495   10.818830   35.061310
H   42.002060   73.412659   69.400757
H   62.933754   96.808762   36.629414
H   44.428398   53.440727   89.715874
H   21.421463   49.228024   47.569473
H   79.029243   49.817722   43.954197
H   46.472637   32.316780   95.838806
H   48.094086   40.368416   89.498932
H   37.539696    0.088183   92.452827
H   94.906387   58.702393   82.003250
H   28.168873   30.919815   12.778206
H    2.310979   81.703697   57.942894
H   42.294323   36.923809   41.835831
H   63.013664   79.939873    4.990769
H   94.465080   22.973539   93.800850
H    4.944697   70.819817   35.304512
H   40.123051   36.452923   82.505058
H   14.597250   92.521034   20.384350
H   24.564707   89.388779   27.238771
H   77.268051   82.149506    0.934045
H   85.370262    4.282777   83.258713
H   49.867889    9.333145   32.763264
H   69.430321   85.466133   84.538116
H   17.572437   22.464317   45.247314
H   55.191490   80.918449    0.586647
H   49.469780   40.151592   35.337097
H   76.256943   70.680779   80.672493
H   52.657192   70.238205   31.911383
H   61.791801   87.154785   56.158367
H    8.180063   32.446396   44.229286
H   57.885651    1.846832   68.300797
H    8.782099   65.659126   18.558290
H   56.140511   29.305202   49.593235
H   73.803757   66.301056   67.354843
H    1.432236    1.104861    3.050672
H   27.062685   73.936172   62.243492
H   31.937927   61.894924   58.389664
H    0.093591   29.541203   38.045109
