100
TIME:    7.738, STEP:  7738
H   94.033195   12.409593   92.061661
H   86.772354   24.174465   66.012283
H   12.780077   30.606136   32.507343
H   82.775406   13.844662   16.016163
H   25.859873   92.992165   55.895996
H    8.020814   92.824944   45.066360
H   47.420918   83.844543   95.574829
H   11.694756   58.036312   97.715721
H   63.413063   42.316299   13.006969
H   63.407509   27.491213   10.692635
H   80.485123   77.597885   94.386353
H   60.505447   11.556425   42.129372
H   50.323189   93.615372   56.125019
H   71.941795   81.225197   46.105923
H   74.591743   78.836533   78.780792
H   90.394470   34.935303   90.719025
H    1.863027   93.779968   77.809021
H   66.540665   18.307709   31.288898
H   65.783173    2.970189   71.028534
H   84.041489   41.487621   43.171608
H    5.092819   85.874878   47.219738
H    4.229935   54.356293   60.316101
H   82.428749   31.689714   10.956439
H    0.085756   29.397188   32.382294
H   52.828682   72.498734   93.686806
H   11.122036   97.987228   62.703209
H   94.822342   20.816908   53.504314
H   79.631401   17.623373   22.548979
H   79.426048   51.143726   91.393272
H   97.703140   99.323593   98.537865
H   20.593897   15.937376   97.173149
H   54.339291   38.718105   82.918663
H   15.410921    2.333924   94.897102
H    5.050231   64.581184   45.761108
H   88.378120   73.794853   95.837265
H   45.288563   91.501862   95.098946
H   21.974220   21.153288   18.189299
H   44.166054   17.341671   68.489449
H   18.447758   12.819513   94.442986
H   34.360565   87.777649   46.844650
H    6.414477   21.692907   24.648405
H   48.097496   71.947723   74.997826
H   77.880463    9.905827   60.396168
H   85.246201   42.524437   37.316074
H   85.441414   26.590778   18.271633
H   78.240929   10.505591   14.597746
H    2.189121   45.657295   99.740471
H   56.659908   75.068878   47.361126
H   91.220833   91.589363   35.801811
H   88.200928   48.510746   42.491554
H   42.970264   22.589731   34.996307
H   81.195145   45.710056   66.085297
H   69.381966   66.876282   53.459938
H   97.500366   80.952286   73.273087
H   24.684082   36.726143   66.164795
H    3.233429    4.394098   29.207016
H   86.807587   66.269691   91.935555
H   49.868088   46.128975   14.241504
H    0.553482   65.727440   17.439682
H   48.389862   22.556293   43.523460
H   47.819866   18.719124   11.081307
H   24.281197   55.917862   45.234840
H   99.392860   79.255646    2.852570
H   74.395195   83.915222   17.051258
H   39.457336   42.823292   16.175211
H   25.990059   57.594414    3.714910
H   66.734253   15.885675   40.653423
H   45.849236   60.081963   36.123749
H   42.563614   93.783012   74.919617
H   87.179512   37.303753   85.431427
H   76.315788   68.908661   69.329536
H   36.062061   94.667381   23.238821
H    2.458519   35.559391   63.350323
H   59.861629   59.680332   43.387451
H   35.217743   39.708988   88.002136
H    8.586255    3.505529   75.259407
H   69.558311   56.057838   27.975504
H   95.525635   44.753139   41.780964
H   32.578339   30.789776    4.012403
H   20.046387   87.493584   54.285561
H   62.299171    9.335519   42.472595
H   21.950157   94.652695   39.643131
H    7.320105   36.524815   66.871994
H   82.511024   74.316528   56.669643
H   75.553757   64.861046   97.640800
H   73.203171   93.283356   79.133347
H   83.958305   40.736839   92.520973
H   80.477348   85.871765   15.346924
H   16.269329   63.332726   64.903938
H   82.195862   90.912857    0.833017
H   40.693562   91.261543   96.874191
H   50.832539   77.451065   80.965630
H   81.474274   59.699154   17.395998
H   95.114082   82.628380   48.560207
H   22.806816   56.607567   93.898163
H   33.048691   90.167297   67.771126
H   48.396080   11.747565   92.168968
H   23.341188   69.334282   23.541262
H   40.092461   70.216759   96.897957
H   19.848757   80.063217   52.314808
