100
TIME:    8.083, STEP:  8083
H   70.701897   80.771599   91.745804
H   77.244003   42.870564   87.764297
H   18.710291   55.427155   28.457630
H   82.833313   99.629814   97.105293
H   22.768423   20.645344   46.541367
H    2.670329   92.451180   79.233009
H   29.340546    7.139766   22.554295
H   84.578430   87.884270   66.040535
H   54.932304    9.145286   91.290924
H   53.984444   32.444904   24.202099
H   48.394058   91.479797   61.153168
H   47.336845   28.849422   17.572269
H   28.323753   72.731964   21.840990
H   54.859200   80.161812   72.360695
H   78.782112   48.019424   62.188065
H   76.523087    4.760191   62.081329
H   74.120216   16.599072    9.215734
H   73.915924    1.520356   19.329765
H   71.158005   17.444218   89.206100
H   74.744766   34.162373   66.660835
H   84.620049   51.529743   37.857212
H   37.305424   54.814285   30.936142
H   77.822502   28.885168    1.085252
H   68.031540   33.524384    6.759476
H   40.489204   45.138443   96.234718
H    9.495373   87.816635   30.235821
H   65.073883    6.475285   60.350513
H   50.521141   33.726810   33.952957
H   86.927650   82.445145   75.084526
H   10.931690   90.784927   25.963608
H   34.172009   46.873611   69.877846
H   76.122887   29.187122   50.980263
H   39.712597   77.091789   25.977430
H   19.627850   32.963905   31.226496
H   79.792076   47.673485   16.827658
H   75.279175   18.524347   94.014503
H   55.063267    8.517694   45.374050
H   29.907551   11.027683   92.836754
H    3.884578    5.303434   61.009529
H    1.865573   55.480583   73.988953
H   82.836029   33.529648   32.776455
H   19.022865   73.300644   92.612114
H   80.849518   11.975348   85.316902
H   63.215755   48.315483   71.047516
H   55.514717   12.979830   47.794342
H   73.787346   17.084629   15.999361
H    4.886078   64.419197    3.053669
H   56.680965   78.622269   68.707787
H    1.306893   63.014931   22.039299
H   95.444580   53.761868   18.368725
H   42.946575   89.281731   38.633926
H   97.961884   13.696077   43.438354
H   76.536125   68.876709   33.424080
H   89.509186   75.324768   88.497391
H   97.213966   66.961288   69.097000
H    3.663126    4.031192   17.462402
H    8.679872   56.314934   24.748131
H   24.178793   13.547586    5.354737
H   27.763309   80.304237   90.954208
H   25.624474   49.075115   33.710838
H   69.582413    2.675455   84.181648
H   12.036476   52.706650   29.623814
H   22.815025   55.713776   79.194885
H   98.084465   85.794571    7.684041
H   53.152367   15.268206   48.303772
H    4.797375   40.443382   24.114399
H   39.054657   27.813217   57.309612
H   22.017830   79.812492   52.616745
H   59.759392   68.993507   53.282112
H   94.186272   54.631138   84.699692
H   65.360817   45.434868   65.191811
H    7.652427   83.212303   48.526257
H   79.964203   18.494177   54.503696
H   52.267902   37.846722   22.888922
H   51.837082   40.216991   14.160025
H   16.742662   25.616898   52.045280
H    0.891345   26.196198   34.094368
H   11.733096   22.195690   60.835033
H   49.121346   29.776402    7.862568
H    3.127885   68.700096   24.563423
H   69.053246   12.904702   63.092789
H   47.837776   96.890015   10.780735
H   29.141882   42.294468   99.726379
H    6.247323    3.838713   25.160282
H   58.755432   43.280018   64.196815
H   65.264633    5.955104    3.091160
H    7.000140   15.652525    8.971977
H   86.025902   58.265320   11.769844
H   23.430069   44.123360   62.082283
H   51.693546   76.720352   13.165440
H   54.812366    9.890763    4.160127
H   76.359047    3.398599   87.540718
H    3.589465   70.049828   44.075378
H   28.456846    3.559138   71.823067
H   16.841068   25.703598    1.826016
H   61.544250   76.543335   49.951530
H   21.011812   31.545357   72.327888
H   22.675257   86.406349   16.614782
H   23.657372   71.706551   68.002312
H   41.277020   71.208694   19.078762
