100
TIME:    6.776, STEP:  6776
H   59.088943    0.629351   92.942398
H   13.339622   72.046516    5.353314
H   96.242126   61.396461   43.802799
H   82.613937   53.479523   68.748535
H   34.479034   15.883619   81.980499
H   22.940990   93.867149   49.796589
H   97.840714   18.885067   20.345179
H   87.306053   74.811462   86.043983
H   87.060860   34.808701   73.562691
H   89.682838   13.678007   73.025551
H   69.968018   38.889484   87.050774
H   97.218216   63.336491   10.606213
H   11.676132   51.831219   51.724052
H   19.574085   84.190346   72.897377
H   62.907295   64.767113   25.045040
H   29.076138   19.075417   70.573730
H   79.221443   30.150600   90.234352
H   45.969013   65.118896   64.632362
H   50.802425   62.617012   20.348423
H    9.961708   61.913387   77.674217
H   62.179276   81.645233   73.328880
H   12.002060   53.079224   42.239273
H   95.272835   39.513451   38.481949
H   89.469872   17.888887    3.828272
H   87.236153   48.789963   86.582191
H   15.657476   26.343693   53.231766
H   77.777382   60.808693   34.414333
H   60.801605   72.720482   90.750839
H   58.508537   63.863689   36.866241
H   60.814930   23.134087   22.060986
H   82.734138   29.672928   73.283455
H   93.598145   65.294708   71.975807
H   47.649845   72.718040    8.232549
H   64.403969   52.742722   86.289703
H   12.320152   46.631752   37.308922
H   61.663692   16.154015   98.122810
H   29.705902   56.383911   42.387547
H   83.927681   34.949078    0.606032
H   59.057087   33.777702   87.667831
H   24.970314   77.837280   71.156967
H   72.160110   88.684578    1.985192
H   29.169708   68.175232   25.887280
H   69.601532    4.135162   90.911949
H   46.672436   26.377584   43.256859
H   68.887047   64.543320   35.951237
H   90.659325   92.158676   10.689474
H   94.672165   93.339371   90.507408
H   56.601292   65.160583   87.838425
H   63.096191   71.260902   74.177994
H   68.002686   33.868488    9.753570
H   43.036320   15.464403   24.855736
H   34.439983   34.977028   29.234169
H   49.427906   61.298279    9.328680
H   19.776497   96.644089   30.821651
H    1.279271   52.421745   57.983219
H    2.035259    5.406029   61.955765
H   25.821123   94.027596    0.441329
H   21.500692   36.978249   39.022079
H   24.685951   25.074383   91.290230
H   11.873507   48.614712   70.885033
H   87.135612   63.454330   86.085709
H   58.424446   64.872025   88.761108
H   34.082829   44.901283   68.819794
H    8.335030   78.674835   43.172459
H    1.272825   19.656006   26.588663
H   85.087158    5.418245   46.833847
H   43.917648   82.625580   94.206802
H   12.301205    5.063494   90.134583
H   94.616127   62.906189   35.253948
H   67.662804   88.955009   87.464813
H    6.863270   34.362564   80.867195
H   15.255248   26.642887   52.729622
H   65.183334   83.138275   88.011292
H   81.041924   20.566765    0.547273
H   88.869255   38.301998   15.064762
H   85.846230   41.851025   39.990517
H   82.188080   39.320965   10.914888
H   50.329128    7.653798   88.652504
H   86.447044   33.615475   93.279991
H   67.223618   39.899269   37.162651
H   43.468742   99.382492   84.975006
H   49.761925   88.414139   20.124622
H   46.473007   20.436682   75.255814
H   16.328030   91.995872   44.533787
H   22.394300   25.042160   90.895256
H   95.339035   57.949852   12.329322
H   19.708513   10.682256   46.649239
H   65.005730   62.852673   25.321274
H   96.303329   16.895590   72.771858
H   67.250198   30.492977   66.440338
H    1.324476   39.316208   76.558517
H   79.654282    5.099622   62.632164
H   19.807987   30.832989   43.003059
H    2.141500   24.264856   83.694305
H   39.440102   42.777229   71.791656
H   53.591415   28.154333   17.459976
H   24.755194   56.540405   47.495544
H   25.198076   21.736160   42.853035
H   85.920158   66.062614   77.476555
H   60.093182    4.752345   44.987286
