100
TIME:    2.049, STEP:  2049
H   78.756989   34.117508   97.270096
H   44.273613   15.837900    7.250439
H   14.975294   21.317123   99.282585
H   81.820526   48.231834   27.850109
H   76.818344   36.993900   10.148331
H   96.243538   98.988258   81.665337
H   45.581806   99.694908   50.687325
H   58.838936   65.865448   20.061234
H    3.259652   89.290314   71.110817
H   18.846373   45.803963   87.926079
H    9.662033   48.688389   42.379322
H   77.636612   26.396242   47.078667
H   12.925927   37.740150   21.475266
H   53.626961   98.760262   13.169308
H    5.422981   87.002502   52.279831
H   19.139038   32.516182   62.956802
H   59.330917   17.500648   59.909721
H   44.930779   95.057610   28.511135
H   77.176949   64.313660   71.310562
H   37.314400   62.298573   55.838081
H   42.686066   52.233593    1.631362
H   58.819340   46.804382   44.786705
H   58.386925   77.957832   73.725708
H   28.667244   61.256260   54.898491
H   56.299675   23.669876   51.679848
H   37.263775   66.552765   97.119743
H   85.391441   57.304325   40.626492
H   59.652359   52.080105   34.500568
H   55.724396   34.992958   60.314812
H   79.561394   40.127396   46.277920
H   96.703590    5.789606   47.273556
H   95.132416   95.902199    9.577843
H   14.686079   18.567635   82.387054
H   64.676369   85.944199   85.430420
H   29.840389    4.031383   49.497337
H   50.707378   45.444111   13.596036
H   76.324280   29.498129   69.918518
H   79.301552   21.451572   67.032494
H   58.606583   36.767891   45.740562
H   70.199760   20.362478   99.244827
H   95.215431   26.489817   90.618088
H   47.468750    3.816782   99.065674
H   28.890074   75.787186   49.474243
H   48.516411   47.112427   81.074020
H   78.919502   51.046314   31.448992
H   51.652622    1.998310   91.490364
H   57.715656   36.273163   45.131783
H   56.348843   16.479734   95.358467
H   24.924795   62.750080   62.740921
H   68.862114   61.936489   40.354473
H   43.388294   71.825722   75.021179
H    4.710978   73.607834   39.549297
H   51.383934   33.889526   83.867332
H   29.243046   73.777306   22.232870
H   77.639725   38.131214   17.792982
H   96.129990   10.378548   22.874008
H   26.149691   30.424187   50.864433
H   73.484222   83.384644   60.778275
H   51.876320   25.344213   54.181229
H   23.806210   85.280777    5.331855
H   88.952866   83.283638   54.638699
H   26.188766    8.872089    2.642403
H   13.214773   67.426842   92.988693
H   83.740845   52.940544   71.512535
H   13.649653   97.193390   86.380722
H   75.471992   40.411110   67.338219
H   23.173666   19.202593   65.988052
H   38.827431   34.722290   64.156647
H   59.025749    2.558253   31.722794
H   71.894592   51.202721   97.418518
H   56.967644   55.986092   37.572910
H    5.018212   83.522659    6.639434
H   73.392899   16.955112    9.208477
H   85.097313   19.714411   81.430397
H   60.960464   31.559183   56.726177
H   74.099892   38.894341   58.056820
H   52.991447   48.953735   27.286783
H   28.246075   16.741156   27.598392
H   59.768425   47.499851   40.538460
H   99.038429   97.360672   44.397957
H   50.979435   50.479504    2.453067
H   95.061401   57.609085   15.441336
H   47.443119   41.456879   25.056889
H   91.122505   87.497169   76.276367
H   52.560410   20.717575   49.124832
H    4.130597   84.318321   84.071953
H    4.002813   54.373932   21.247663
H   88.940018   41.246567   74.440285
H   98.204048   80.087349   11.436172
H   85.179428   24.973579   97.465569
H    7.876187   84.071350   76.732864
H   29.892927   49.609188   72.563301
H   16.751781   89.027634   77.431259
H   45.271847   37.519596   64.970787
H   21.165718   66.193634   63.170433
H   63.160583   14.818796   61.615433
H   99.962753   85.268517   19.349655
H   14.388368   33.683685   23.251354
H   11.103613   45.682728   73.414963
H   66.491165   26.072510    0.337445
