100
TIME:    7.009, STEP:  7009
H   43.331863   79.262032   92.729080
H    6.905384   84.671379   20.044735
H    0.248852   78.159691   41.066998
H   82.653046   43.880219   55.976788
H   32.392075   34.559597   75.662735
H   19.327030   93.614723   72.871567
H   85.628265   34.619038   38.566082
H   68.992714   94.970001   64.651756
H   81.333275   12.406697   58.896465
H   83.318855   17.023851   82.148445
H   48.294922   48.264805   64.606178
H   88.326416   75.015640   94.021233
H   96.808952   37.738659   28.571632
H    8.037725   83.472176   90.627647
H   65.737312   43.954399   13.840519
H   19.707039   98.696106   51.232910
H   60.485023   45.561039   11.445275
H   50.951763   53.781052   56.556366
H   54.430607   72.390778   32.623089
H    3.684830   56.966190   93.537956
H   48.352722   58.450043   67.004005
H   34.339996   53.388535   22.397156
H   92.161949   37.618477   31.815741
H   67.821663   20.676241   86.524384
H   78.902534   30.311302   88.302956
H   14.559246   19.475597   31.304487
H   57.685833   51.122284   39.037998
H   41.142586   83.596138   98.451614
H   63.574837   85.003487   25.852427
H   69.749390   17.367393   40.583611
H   91.903252   50.565735   54.849236
H    8.309830   58.857487   50.405815
H   64.062874   55.670387   29.223028
H   74.248589   31.389603   76.473526
H    6.521074   28.990364   51.485672
H   81.918221   34.404129   97.390419
H   52.052818   47.851196   60.747105
H   74.296379   30.684498   17.047607
H   49.221355   28.701315   65.088135
H    3.024354   56.024876   89.488083
H   56.235931   96.680443    7.474168
H    9.533651   69.088943   37.781986
H   71.606720    5.532839    7.742117
H   31.795292   30.288412   66.037590
H   48.676529   55.350994   55.889351
H   87.651543   96.602798   11.636072
H   96.492477    6.010794   92.743690
H   56.615414   67.560410    2.255106
H   69.907906   51.963856   64.884445
H   72.894775   37.414898   93.462502
H   43.020321   92.969482   27.311558
H   45.765385   13.355484   13.939338
H   54.261333   62.649292   95.796577
H   14.381332   92.843475   41.103470
H   82.727676   72.840828   59.965298
H    2.325460    5.160935   54.023895
H   40.591610   87.304527   22.601799
H    4.151423   14.973822   33.020737
H   43.061508   34.920780   73.403526
H   96.497871   66.524277   64.257957
H    1.833271   52.619560   67.918137
H   50.154823   62.703293   78.219650
H   49.902126   29.001823   52.842285
H   24.334759   79.944077   36.845806
H   10.521205    1.046605   48.286869
H   70.773529   93.835289   60.610626
H   25.223570   90.681885    5.456127
H   96.206032   18.389589    1.273330
H    6.228528   46.164291   20.639896
H   72.384239    0.673335   86.974182
H   99.464119   18.509491   78.072731
H   96.080132   18.889816   69.805748
H   49.991547   71.615555   82.038391
H   75.911629    5.820311   86.702972
H    0.102875   38.635555   32.728687
H   91.353386   56.785053   24.312994
H    3.349315   19.153538   15.047033
H   61.275890   92.418816    1.519294
H   97.621346   32.931080   95.878914
H   55.796890   27.206520   17.089439
H   48.028412    1.793397   98.901108
H   67.245430   89.925140    0.631882
H   61.211494   24.333288   97.444427
H   32.357960   11.934254   23.253551
H   11.049345   10.467048   68.308449
H   89.977646   66.508713   28.509583
H   35.270054   93.741066   57.759544
H   68.753014   44.206913   22.905449
H    1.138690    3.922784   70.866219
H   46.649303   20.906116   74.770401
H   10.859913   51.896629   81.479050
H   96.893921   22.623035   67.072182
H   34.743793   37.824482   61.021309
H   24.659653   38.400719   99.405167
H   35.411949   21.905853   77.145935
H   72.836243   18.954111    5.424902
H    6.261189   69.911880   34.095627
H   24.748331   33.265003   38.176041
H   74.820518   67.068764   57.960972
H   74.566322   98.773209   22.540913
