100
TIME:    7.127, STEP:  7127
H   35.351883   68.440804   92.621048
H    3.646756   91.065086   27.485004
H    2.277265   86.649223   39.681484
H   82.672852   39.018768   49.508358
H   31.334875   44.017818   72.463181
H   17.496784   93.486885   84.557053
H   79.443420   42.587315   47.793835
H   59.718147    5.178674   53.817078
H   78.432610    1.061300   51.468349
H   80.095894   18.718157   86.768623
H   37.318848   53.012821   53.240242
H   83.823273   80.930405   85.621727
H   89.284508   30.596828   16.845184
H    2.195225   83.108467   99.606926
H   67.170540   33.414055    8.166126
H   14.962173   88.375427   41.437988
H   50.996193   53.365467   22.187281
H   53.475216   48.039139   52.466446
H   56.268055   77.340454   38.839443
H    0.505979   54.460743    1.571936
H   41.350433   46.702438   63.800907
H   45.652771   53.545181   12.348358
H   90.586479   36.658791   28.439283
H   56.857605   22.087862   77.761169
H   74.682076   20.953011   89.174416
H   14.002880   15.997410   20.200125
H   47.510098   46.216721   41.379597
H   31.186478   89.103981    2.351984
H   66.140602   95.709480   20.274813
H   74.274139   14.446802   49.964409
H   96.546837   61.146591   45.513451
H   15.760227   55.597614   39.481956
H   72.374153   47.036812   39.853401
H   79.234276   20.575577   71.502243
H    3.584285   20.056099   58.665314
H   92.175880   43.646286   97.019508
H   63.370094   43.529907   70.045074
H   69.418724   28.524754   25.374191
H   44.240170   26.130598   53.652924
H   91.909782   44.977680   98.771652
H   48.171326    0.729706   10.253973
H   99.589088   69.551682   43.805683
H   72.622223    6.240675   16.265179
H   24.260944   32.269005   77.575432
H   38.441376   50.695705   65.986763
H   86.128288   98.853470   12.115465
H   97.414352   12.428323   93.876228
H   56.622616   68.775772    9.556072
H   73.357735   42.191441   60.177109
H   75.372314   39.210934   85.212440
H   43.012218   81.577484   28.555279
H   51.500996    2.405575    6.193610
H   56.709164   63.333496   88.943733
H   11.649017   90.918701   46.310623
H   73.332474   83.181313   60.969097
H    2.472429    5.036811   50.006897
H   48.071941   83.899712   33.824547
H   95.364914    3.829890   29.981131
H   52.367584   39.907368   64.345024
H   88.710548   75.593582   60.901756
H    9.276917   47.132423   58.717911
H   45.966774   61.604965   72.881058
H   57.913616   20.949371   44.750671
H   32.437649   80.586868   33.641750
H   15.204852   91.622528   59.275547
H   63.524567   87.969139   67.587708
H   15.755896   94.761902   11.153426
H   88.055000   25.138453    6.914412
H   12.109791   37.685562   13.238873
H   74.775352    6.608473   86.725708
H   95.717201   10.480741   76.657509
H   86.369835   14.963235   78.453728
H   42.297852   65.780014   79.013489
H   73.313454   98.352112   79.691681
H    5.786728   38.809307   41.675556
H   94.142418   64.348167   16.373075
H   14.066386    8.939991   17.139708
H   66.819748   84.703514    8.036204
H    3.280012   32.584476   97.195107
H   50.009964   20.778152    6.923796
H   50.337608    3.014440    5.953613
H   76.100471   90.690369   90.759575
H   68.675056   26.306677    8.682116
H   40.475681   22.032024   12.476362
H    5.303831    3.085528   56.869637
H   87.262436   70.842606   36.703827
H   43.151005   85.161507   63.386223
H   70.650780   34.763996   21.681984
H    3.587759   97.352791   69.901131
H   36.216091   16.050968   78.989059
H   15.688953   58.267830   83.970993
H    5.624727   31.497433   69.321053
H   42.307850   41.365238   70.146431
H   36.063644   45.559654    7.361635
H   33.371941   11.335800   79.857544
H   82.582550   14.294688   99.329887
H   96.894951   76.683701   27.309090
H   24.520563   39.103245   35.807434
H   69.199242   67.578316   48.076923
H   81.896309   95.744705   11.173318
