100
TIME:    4.905, STEP:  4905
H   85.617592   72.207863   94.655350
H   65.011086   70.659744   87.381775
H   64.067184   26.788956   65.770256
H   82.299896   30.565166   71.304451
H   51.237411   65.914886   32.708984
H   51.961246   95.894142   64.505699
H   95.899773   92.546204   74.030396
H   34.362968   12.947324   57.833950
H   33.053673   14.697758   91.334419
H   40.798836   86.811897   99.762360
H   44.003876   63.605869   67.274200
H   68.632515   69.552986   43.785423
H   31.068832   64.975243   37.636475
H   12.214767   89.957283   30.512796
H   40.163658   31.892675   14.992929
H    4.303902   82.719742   25.883446
H   29.676308    6.399240   19.909849
H    5.958124   56.155964   29.492903
H   21.665440   84.124069   21.777002
H   60.365311    1.652804   50.287819
H   73.207069   67.909882   24.114491
H   32.627472   50.595444    1.572234
H   20.255211   54.730171   92.011688
H   63.313786   95.506317   42.785263
H   54.152863   97.167755   72.764381
H   24.186563   81.653183   29.174425
H   39.115204   38.582020   97.288307
H   18.672443   85.388535   28.905184
H   17.825935   94.112236   25.309753
H   89.073242   69.440880   73.322121
H    9.097009   61.895443   21.310951
H   75.461952   16.993431   45.183617
H   15.858562    9.609453   39.678093
H   85.349075   24.208649   65.111275
H   58.846436   88.139603   23.408791
H   99.021301   69.609261    4.006130
H   50.251915   24.904518   94.960251
H   61.257366   69.191673   68.572655
H   38.031345   74.545952   68.981369
H    1.197648   52.994164   23.949163
H    0.030269   24.486227   57.905376
H   90.787010   31.996378   33.240170
H   53.490475   92.913773   55.766319
H   66.141479   94.973083   60.320282
H   31.183615   38.364853   75.844505
H   14.806314   56.472187    3.087198
H   80.054977   91.587914   72.549965
H   56.501369   45.889877   72.071541
H    8.410210   26.217747   48.812584
H   28.750248    5.388586   40.601654
H   43.170399   96.097015    5.133414
H   43.505760    8.591665   52.058762
H   10.615771   50.449585   17.993814
H   63.099899   27.174026   48.260033
H   50.251801   88.453621   42.067043
H   99.703476    7.374139   25.649033
H    7.208423   48.015114   22.493889
H   60.818985   13.670792   87.213120
H   77.123177   46.017685   34.923309
H   35.339237    4.801841   24.100716
H   69.111786   50.465870   31.963470
H   24.827364   82.287033   73.419724
H    7.060349   72.574631   97.119873
H   79.857643   68.482773   93.967331
H   27.009588   69.090820   52.350529
H    0.024250   98.431114   36.205208
H   94.030762   17.941719    3.875007
H   41.543953   98.058792    0.689964
H    1.365330   97.344322   52.600571
H   29.761946   94.849121   91.404602
H   66.276649   61.663864    3.307738
H   69.526581   88.737411   15.742507
H   87.175827   75.684151   35.984573
H   22.230793   38.981396   11.715305
H   98.661873   35.632648   73.230194
H   41.616302   21.936811   65.883926
H   12.296801    1.413104   77.795982
H   62.426144   29.994095   85.324577
H   96.726585   39.111195   72.410530
H   58.974731   41.816998   98.351196
H    6.855237   80.026138   73.149376
H    9.352807   76.260941   76.624290
H   28.126787   89.148254   97.070663
H   87.605942   31.890909   15.421512
H   13.496144   42.074738   72.267693
H   38.403622   89.223228   82.401215
H   94.748573   46.719467   57.432877
H   34.908386   12.588634   44.733475
H   57.476425   21.069635   88.074226
H   32.670467    7.469208   99.560471
H   24.755516   38.287647   37.046429
H   41.219227   64.382141   26.988493
H   99.873650   74.696220   98.315720
H   21.314369   10.756753   57.536488
H   71.786339   10.368988   28.797104
H   99.054443    2.039152   14.099516
H   73.266594   49.168484   55.097992
H   24.869978   58.000824   77.544304
H   75.050262   57.993824   34.191994
H   43.878796   52.761745   25.225988
