100
TIME:    0.688, STEP:   688
H   70.795815   58.928200   98.516129
H   82.132240   42.047657   21.398985
H   91.585236   23.401287   15.261620
H   81.592087    4.303701    2.450911
H   89.008698   27.903755   47.050316
H   17.347694    0.464848   46.880817
H   16.912823    7.793876   44.255268
H   65.810852   48.122112   45.024612
H   36.715645   20.145126   56.780991
H   56.038612   26.263542   34.631691
H   36.258942   93.925858   73.477196
H   29.581280   58.176552   43.956078
H   99.499359   20.082626   56.746643
H   21.015949    2.956005    9.596470
H   88.870094    8.569432   17.700426
H   73.861023   51.560322   75.930161
H   68.752373   27.495529   35.995491
H   15.846313   61.243225   75.694626
H   55.977554    7.214285   99.610535
H   74.025856   91.107178   63.124779
H   23.449646   87.724640   38.570114
H   28.317860   45.008018   60.674633
H   76.558235   89.026756   12.665079
H   55.118881   44.933231   55.978867
H    4.977664   31.610935   41.638901
H   43.504322    7.109927   24.687284
H    2.751353   13.877210   13.618734
H   74.488945   88.552704   89.515274
H   26.131119   11.512916   24.649796
H   27.373854   73.811813   38.082211
H   43.165714   83.739204   54.969231
H    9.197905   33.503197   35.572456
H   18.819260   18.144865   59.777428
H    7.171562   10.671559   42.766380
H   63.670509    6.912627   66.621582
H   32.374420   38.531567   18.277021
H   45.786930   79.339699   62.677013
H   35.554092   46.361843   70.990730
H   19.789936   65.821220   76.185715
H   98.391853   47.775326   92.164421
H   88.224625   79.787514   58.551746
H   69.787651   42.736229   35.123432
H   17.166983   67.625671   51.167473
H   35.425400   24.301397   48.001472
H   96.976860    4.747169   14.981447
H   69.164574   76.137749   86.016289
H   43.344715   62.856205   33.502144
H   56.276157    2.466987   11.147429
H   85.141106   75.468552   17.029005
H   40.319347   41.221195   35.544991
H   43.492130    3.221239   60.671040
H   38.567772   99.897278   28.895958
H   23.150911   25.997986   62.913528
H   60.757290   95.977455   62.175983
H   85.988052   18.818220    6.244219
H   94.427078   11.808889   69.205658
H   39.867500   69.694984   21.422096
H   74.828796   11.914024   95.833328
H   44.537476   67.838196   58.666294
H   13.618476   80.669983   44.041222
H    3.099848   46.575111   60.752670
H   74.492676   21.541550   64.227081
H   20.899208   60.237190   86.358498
H   90.282967   45.537033    8.459784
H   59.631844    5.894207   59.634140
H   59.080391    8.070545   86.865791
H   32.369591   72.146881    0.278199
H   32.841042   56.884750   99.092979
H   91.191490    0.351040   17.081585
H   44.323143   82.748192    0.284003
H    0.184233   48.591648   53.895939
H   17.238592   28.692268    6.993294
H   62.132980   84.275154   44.107777
H   15.047614    5.841082   62.318718
H   95.343674   29.622641   53.553150
H   41.924358   51.667747   49.635372
H   29.420567   66.914177    3.208071
H   64.303818    5.733674   52.436893
H   94.529259   51.487156   25.359901
H   65.784714   71.485603   61.649353
H   24.345486   36.399334   21.108692
H   92.944130   48.720718   29.248112
H   61.326885   18.740580   95.428558
H   97.497162   71.034645    0.588905
H   18.829550    5.848226   81.058632
H   35.457775   34.325481   89.559959
H   13.104696   53.329720   56.349606
H   67.030609   50.210976   88.588631
H   69.960640   55.865227   22.571526
H    5.507744   80.975510   48.807995
H   52.178349   10.582224   47.991039
H   29.191988   47.249992   46.632011
H   29.426781   48.244843   72.140312
H   13.725092   54.965988   73.206017
H   44.697361   88.102539   31.895031
H   50.747574   68.562737   31.913002
H    7.992439    7.163331   97.621277
H    9.391257   22.095581   45.027863
H   75.937370   39.815990   87.421211
H   81.968582   61.033230   31.422079
