100
TIME:    5.567, STEP:  5567
H   40.848549   11.499700   94.049271
H   46.727699    6.530326   29.122272
H   75.451370   74.416397   57.998440
H   82.411011    3.289082   35.016479
H   45.307938   18.977022   14.761280
H   41.693256   95.176949   30.064714
H   61.202152   37.248402   25.799730
H   82.331070   70.217361   97.049843
H   16.780449   51.049072   49.664742
H   22.708673   96.317238   25.687185
H   82.426254   90.243042    3.508246
H   43.364990    2.735723   96.664406
H   88.825150   24.943272   71.856621
H   79.436485   87.916817   80.891426
H   48.214409   72.760666   83.172119
H   77.686569   24.818985   70.931366
H   76.442055   50.183681   80.174316
H   20.114317   23.947277    6.545233
H   31.976360   11.894580   56.651806
H   42.531433   87.592079   95.359901
H   33.923042    2.004175    6.146770
H   96.094055   51.474258   45.196793
H   11.415902   49.346169   73.071716
H    1.803036    3.425753   93.619080
H   30.475536   44.669342   77.653419
H   21.168795   62.086433   66.921249
H   82.030594   11.062674   10.423409
H   62.813473   16.288429   50.789688
H   32.220314   54.173649   94.017761
H   14.457088   53.056541   25.948822
H   35.151474   21.259472   68.935616
H   17.260838   98.703812   83.898994
H   62.490429   61.174034   99.316277
H   13.320235   63.540398   37.221535
H   42.391388   38.097672   63.718102
H   56.567280   21.460079    1.924057
H   13.747087    0.658871   47.123089
H   33.897945   57.077305   15.289909
H   10.086316   60.121269    4.828935
H   38.844303   91.019234   76.035057
H   54.786469   47.199043   73.501808
H   31.290215   61.709404   64.337135
H   59.192669   96.883591    3.584852
H   23.872257    6.084812   25.048014
H   73.758995   12.247712   32.494122
H    6.264024   69.098831    5.777728
H   85.226852   27.590832   78.903694
H   56.536724   52.708267   13.032294
H   27.759285   71.390137   22.403606
H   42.634510   15.464651   94.301559
H   43.119892   32.185974   12.112163
H   75.678459   47.163731    8.597839
H   24.348019   54.288086   79.546989
H   47.771149   16.370667   77.473045
H   97.541679   46.470547   47.698528
H    0.529406    6.677779    3.112991
H   49.174614   28.913521   85.455406
H   11.525485   51.153374   70.162094
H   29.334242   73.988411   84.101814
H   91.654663   55.687191    5.271858
H   10.870966   19.681091   80.348473
H    1.334080   76.125229   43.465851
H   52.004765   27.401278   51.724548
H   25.315090   72.088943   75.997086
H   53.287689   16.216709   13.999450
H   59.356346   65.521019   75.347816
H   40.918030   40.827808   35.837723
H   95.814842   35.920567   32.337391
H   34.360828   49.777214   11.079251
H   43.171867   28.145664   90.010620
H   45.255806   16.622086   95.367226
H   14.942831   66.767044   64.212814
H   44.012894   42.938927   19.009308
H    7.659641   97.084007   72.381401
H   30.579145   36.577122   23.414623
H   57.268295   64.366753   21.341349
H   72.403160   44.035786   89.503410
H   93.528107   86.708107   21.883821
H   28.471020   37.166691   79.794594
H   26.512558    5.757989   41.319153
H   19.809343   86.874832   12.715806
H   59.029465   80.573654   21.261335
H   70.001076    0.219279   60.117489
H   33.150887   88.539108   54.956814
H   81.262184    0.664826    8.094173
H   23.165783   13.538508   28.372726
H   38.962074   98.586525   88.999496
H   45.561668   59.597599   37.856606
H   71.214218   84.210854   82.659920
H   74.141663   80.234665   23.224733
H   51.847252   74.032578   51.026653
H   90.200523   14.171086   39.599991
H   42.308823   94.556679   49.509235
H   85.296791   50.916576    2.173453
H   60.341545   51.072346   44.009159
H   53.732971   75.897064   79.906036
H   20.720079   87.159538   17.026123
H   27.299345   63.637360   66.948021
H   43.513947   60.847446   78.742760
H   84.998795   35.776379   61.454845
