100
TIME:    3.634, STEP:  3634
H   71.569733   88.765076   95.818985
H    0.183196    1.773635    7.231510
H   42.219902   35.348015   80.684181
H   82.086563   82.928886   40.971340
H   62.621643   64.038628   67.171982
H   71.671394   97.271111   38.633202
H   62.510677    6.721873   74.636467
H   34.261063    2.989856   74.532677
H   64.297279   36.899185   71.340645
H   75.533348   68.562218   49.994827
H   62.229202   12.464268   89.704201
H   17.140106    5.844345   34.256432
H   12.104110   41.845428   63.938019
H   75.146660   93.874855   33.789257
H   24.704414   45.423569   76.090248
H   55.409424   93.886040   31.388010
H   31.882576   22.331974    4.205709
H   78.796837   17.979439   73.559265
H    1.869469   30.804148   54.814167
H   94.613945   28.644289   63.752251
H   48.630005   94.440674   58.607689
H   10.775467   48.908173    9.809570
H   37.224892   65.067131   28.378010
H   81.403511   80.265808   37.181149
H   99.612213   97.964127   63.377724
H   29.994459   19.328924   48.555618
H   48.715366   91.415726   72.076210
H   25.915789   26.062531   86.892204
H   90.188278   78.797012   85.391579
H   40.336319    0.897879   72.281250
H   59.077847   47.922977   21.868431
H   95.210304   52.106125   62.846474
H   26.331167    2.602026   25.176374
H   31.647278   40.688271   18.656345
H   90.439133   84.217491   46.012825
H   88.521385   69.955963    8.142903
H   28.347221   71.450668   94.810417
H   13.793065   92.444984   78.882362
H   91.679626    2.240076   92.150963
H   20.911594   71.981003   23.949446
H   86.893967   80.874557   27.961164
H    5.017935   74.955200   73.529770
H   42.542606   85.291962   63.960018
H   47.303223   73.675446   36.047348
H   41.432964   88.512573   67.081970
H   31.204052   32.229786   97.923622
H   70.125290   22.467312   60.348289
H   56.433491   32.798981   93.429283
H   71.253403   31.481628   99.511200
H    2.093303   86.050148   29.497692
H   43.267368   18.804317   91.733139
H   81.738632   26.530865   35.496830
H   84.256233   43.079895   91.812202
H   92.539574   47.915825   92.175568
H   51.448990   77.060486   31.255266
H   98.113174    8.711752   68.916870
H   26.631830   84.689018    1.610996
H   55.460930   33.701508   19.951904
H   76.882179   92.313583   32.498661
H   19.212868    7.108580   60.250984
H   88.935860    9.575139   31.060612
H   69.936852   94.117325   30.927376
H   20.772150   59.305595   84.276176
H   92.579582   61.562561   28.477116
H   76.563225   70.603279   33.988117
H   78.102852   61.615913   61.054245
H   96.005447   73.997742   42.512371
H   29.340675   25.369936   39.928814
H   38.020638   88.670273   32.314449
H    4.011667   30.921820   94.080963
H    6.635798   48.142708   18.555862
H   74.326584   30.919891   22.685806
H   70.047836   38.553295   68.574699
H   50.214779   19.412296   87.234520
H   37.381298   33.819317   76.879677
H   11.565782   40.478119   51.406734
H   96.898293   11.575279   55.318424
H    2.712260   13.101755   15.131258
H   35.775986   42.844524   58.229630
H   21.307259   11.037811    7.848888
H   81.989914   66.877060   97.184952
H   13.987126   67.960342   82.904419
H   47.722164   67.915466   76.020477
H    0.164070   23.128334   31.507111
H   75.383499   21.575268   95.476974
H   67.658142   42.537605   94.139069
H    9.861380   39.131523   96.826355
H   14.451960   14.347330   57.950432
H   31.100529   91.837303   98.469368
H   45.044384   59.764915   54.122620
H   72.740845   69.655815   10.205239
H   47.173897   68.801323    2.770227
H   18.400597   36.555359    0.027245
H   98.467049   33.661331   71.839561
H   93.759651   24.217861   99.593315
H   94.075058   52.228279   79.748009
H   74.152618   76.228477   28.195021
H   20.205740   47.179016   97.888527
H   35.597923   52.515041   40.651642
H   64.931160   85.378975   47.665436
