100
TIME:    0.206, STEP:   206
H    3.391866    3.130130   98.957413
H   95.539925   15.913734   90.994965
H   83.303802   88.724541   20.921089
H   81.511185   24.163328   28.871351
H   93.325928   89.269333   60.119682
H   24.821945    0.989445   99.145897
H   42.173763   75.248405    6.562030
H    3.695105    6.424241   89.279640
H   48.564125   66.487320   87.120155
H   69.210945   19.344574   15.755762
H   81.093414   74.531418   19.906845
H   47.979153   34.016243   78.265923
H   30.159077   49.244156    4.654597
H   44.882069    4.442122   72.917458
H   83.008369   51.621223   40.870388
H   93.240753   93.718758   15.939838
H    7.504231   95.620216   92.110802
H    5.546814   84.682770   92.404587
H   48.472046   86.994965   74.214630
H   87.073158    1.212809   30.241755
H   52.052216   35.709618   51.650513
H   82.100380   44.371834    1.714501
H   82.993629   92.946831   26.456825
H   99.901871   39.152409   91.775192
H   22.215349   69.836617   38.079544
H   45.712543   21.473221   69.863457
H   44.315357   33.913624    4.054089
H   15.159355   66.054565   73.584915
H   15.650588   67.781914   47.434174
H    8.892886   85.741196   99.765495
H   24.205202   40.515419   93.110893
H   78.764374   46.818947   80.193642
H   84.868347   53.410103   16.355062
H   86.805977   54.843994   63.072807
H   75.651375   43.348221   37.272179
H   90.465752    0.667868   19.935514
H   99.557487   96.991066   24.697155
H   55.474396   55.183849   36.977993
H   41.459629   76.110497   22.382339
H   43.790371   92.897957   54.242455
H   21.164127   63.246876   47.192356
H   13.107071   21.102274   12.478343
H   13.015895   64.735260   16.353001
H   66.204971   16.224058    0.873523
H   38.786507   23.764133   73.735413
H   75.320488   67.076714   84.126122
H   38.255238   36.853535   29.383490
H   56.250416   97.503372   81.324066
H   71.049431   15.388714   36.256531
H   30.210264   33.884846   69.255997
H   43.527782   49.756126   55.590786
H   15.144258   44.623863   60.539711
H   13.152409   23.203186   90.905800
H   71.915497    3.841029   40.906086
H   24.359688   76.564362    2.154170
H   93.823990   12.315632   85.614075
H    9.312048   83.602791   75.579720
H   10.720284   57.432487    8.248743
H    6.524520   47.472931   95.668503
H   45.425201   43.622108   57.748589
H   72.695267   68.989487   98.335052
H   91.599792   26.027939   86.033875
H   88.205788   93.105507   19.425751
H   57.185898   42.915070   21.547537
H   40.498497   44.391544   14.745214
H   88.690559   32.032276   58.366192
H   71.040794   55.482929   77.007797
H   66.135933   29.319019   76.050591
H   67.170921   34.984474   47.313229
H   34.559731   58.506149    1.297578
H   15.491056   81.388145   59.676762
H   56.980595   44.688820   71.704842
H   93.559769    8.117954   56.467411
H   25.656738   36.343548   90.965416
H   72.102707   28.936811   17.014065
H   30.528196   20.774847   82.068130
H   85.658569    8.689400   94.677673
H   41.658585   37.250782   25.816456
H   71.428032   52.897396   19.985428
H   89.422836   97.734657    3.174149
H   14.913143   31.412607   92.301056
H   56.780155   45.572891   69.555115
H   30.830402   10.695731   49.520294
H   64.342010   29.789280   44.614357
H   42.299637   35.998703   27.782936
H   46.554295   16.618647   56.089169
H   80.912987   88.375038   33.366055
H   59.271362   88.801277   93.597206
H   59.958199   82.702660   26.515503
H   48.122231    0.811089   31.575891
H   32.452946   84.554688   37.812084
H   93.528542   10.999563   37.449623
H   98.501839   33.803818   34.851799
H   67.139320   25.727629   40.708073
H   53.030277   31.277431   20.820637
H   10.936386   87.596794   56.808784
H   46.250816   79.502373   25.341713
H    7.621622   17.991638   52.739304
H   98.898857   37.738277   27.796268
H   52.034801   73.412132   77.845200
