100
TIME:    5.493, STEP:  5493
H   45.852943   18.285706   94.117020
H   48.771461    2.520219   24.456341
H   74.178818   69.092453   58.867321
H   82.398590    6.338070   39.072952
H   45.970749   13.045595   16.767586
H   42.841038   95.257118   22.736246
H   65.080376   32.251347   20.012835
H   88.147324   63.815098    3.844182
H   18.599510   58.163849   54.323051
H   24.730700   95.254707   22.789221
H   89.309555   87.265472   10.636288
H   46.189560   99.026558    1.931804
H   93.547256   29.418377   79.209648
H   83.100578   88.144905   75.260353
H   47.314476   79.370712   86.728943
H   80.661880   31.291275   77.073944
H   82.392677   45.289379   73.437805
H   18.531813   27.547855    9.110380
H   30.823780    8.789981   52.753414
H   44.524948   89.163857   90.321632
H   38.314308    9.371269    8.155247
H   88.999603   51.376022   51.498581
H   12.404050   49.948006   75.188873
H    8.678726    2.540499   99.114655
H   33.122101   50.538101   77.106911
H   21.506128   64.274094   73.880203
H   88.411423   14.138903    8.955090
H   69.057564   12.834358   48.343384
H   30.611275   47.459721   97.515869
H   11.619675   54.888023   20.066231
H   32.238831   14.623767   74.790260
H   12.588516    0.748516   90.749550
H   57.277706   66.588310   92.649773
H   10.193477   70.322075   40.339119
H   44.230774   43.691483   59.212227
H   50.134510   15.663876    2.156773
H    6.649543    3.369080   41.292156
H   36.956249   58.431721   10.068012
H   13.209970   61.733696   11.999918
H   45.813984   97.946571   70.213158
H   59.843933   44.660149   71.758400
H   37.940941   58.388008   60.860989
H   58.555264   96.439835   98.239693
H   28.597187    4.842676   17.812700
H   80.178215   15.167272   26.161585
H    7.218932   67.687393    5.477091
H   84.648727   23.566257   78.193459
H   56.532772   51.946091    8.453589
H   25.596397   77.519165   25.355488
H   41.082493   14.338324   99.477585
H   43.125538   39.330109   11.332061
H   72.082115   54.030659   13.456009
H   22.812939   53.859009   83.844536
H   49.484634   17.578293   74.207542
H    3.433713   39.985271   47.069027
H    0.437233    6.755620    5.632126
H   44.483559   31.048744   78.417412
H   17.035572   58.141685   72.068100
H   23.498228   70.861794   89.782570
H   96.538239   49.999096    7.376595
H    6.202917   23.122459   86.118431
H    3.960236   76.814011   46.814346
H   46.980610   32.451096   56.798950
H   20.233631   71.685837   78.005844
H   50.350204   22.126965    7.107963
H   63.902306   69.199791   70.972359
H   46.855103   38.269718   32.265091
H    0.926532   31.688490   28.799765
H   30.672461   55.094383   15.720483
H   41.672920   24.423702   90.166443
H   47.605568   21.656967   96.254738
H   21.044453   69.222946   58.794609
H   48.837753   46.599068   20.906845
H    9.288441    1.767599   76.778313
H   27.011312   36.471546   17.804722
H   55.518677   59.623802   26.320620
H   65.684715   50.449924   88.194725
H   90.051453   91.546516   17.796862
H   24.922665   37.384052   78.969185
H   30.140800    9.788915   47.694336
H   18.361208   86.109268    8.293065
H   53.475739   80.093765   27.451620
H   65.320747   98.981750   53.069897
H   28.059893   82.206833   61.715343
H   84.865303    5.293662   15.267525
H   24.869106   10.820361   23.233963
H   34.019783    3.966996   85.470901
H   44.371544   65.519287   38.623863
H   69.678574   88.331123   83.265144
H   80.683960   83.278854   20.579416
H   48.818871   70.036514   49.463909
H   84.725273    8.605645   38.190247
H   37.565262   92.336769   43.786701
H   78.144753   46.427074   97.183769
H   61.620872   57.701023   42.308659
H   47.620880   78.819305   83.728210
H   26.593637   82.912804   21.281891
H   27.027784   63.007294   68.132500
H   47.039154   60.528461   84.940666
H   80.402023   37.675045   68.583374
