100
TIME:    6.657, STEP:  6657
H   67.136551   11.541981   93.051346
H   16.625759   65.598625   97.850075
H   94.195724   52.834984   45.200054
H   82.593964   58.382172   75.270874
H   35.544907    6.345263   85.207169
H   24.786747   93.996071   38.011166
H    4.077602   10.849407   11.039225
H   96.659218   64.515900   96.969627
H   89.986107   46.250031   81.052849
H   92.933113   11.969116   68.366219
H   81.037109   34.101231   98.513893
H    1.759869   57.371601   19.076447
H   19.269791   59.028126   63.548515
H   25.465889   84.557137   63.841984
H   61.461922   75.396782   30.767521
H   33.861038   29.483559   80.451660
H   88.790688   22.280033   79.401314
H   43.424175   70.909470   68.757851
H   48.949406   57.624481   14.079387
H   13.167496   64.440224   69.572136
H   69.240906   93.491486   76.559181
H    0.593414   52.921249   52.373230
H   96.861656   40.481270   41.886566
H    0.526281   16.465303   12.666378
H   91.492378   58.227562   85.703346
H   16.199961   29.861778   64.421715
H   88.038445   65.755508   32.052891
H   70.842667   67.165962   86.817825
H   55.921028   53.066967   42.491577
H   56.251835   26.079308   12.601143
H   78.051201   19.001949   82.698357
H   86.084381   68.583115   82.992241
H   39.267223   81.424782   97.512085
H   59.376030   63.648392   91.303116
H   15.281942   55.641731   30.068438
H   51.319103    6.833291   98.496864
H   18.292263   60.741821   33.010777
H   88.846672   37.127125   92.208031
H   64.080475   36.370659   99.199951
H   36.178600   88.977188   61.794506
H   80.293060   84.600853   99.181740
H   39.198349   67.708572   19.812080
H   68.577423    3.421282   82.315971
H   54.270634   24.380209   31.622133
H   79.209846   69.238968   25.767977
H   92.195488   89.888931   10.206018
H   93.742477   86.867874   89.365273
H   56.594936   63.934921   80.475372
H   59.618034   81.117043   78.924484
H   65.504150   32.057232   18.074171
H   43.044491   26.953398   23.601475
H   28.655502   46.019791   37.045723
H   46.959332   60.608276   16.240053
H   22.531967   98.585175   25.570824
H   10.754467   41.992722   56.970913
H    1.887045    5.531205   66.006805
H   18.277399   97.461266   89.123466
H   30.361322   48.216209   42.087143
H   15.300994   20.045536    0.425509
H   19.726036   39.467640   74.269676
H   79.629112   68.988785   95.364426
H   62.647987   65.979660   94.144943
H   26.003782   53.021523   76.979980
H    0.163385   78.026596   46.403667
H   96.549789   29.160336   15.506408
H   92.397552   11.333881   39.797638
H   53.465103   78.510986   88.461624
H   20.521416   98.257607   84.445694
H   88.685738   71.456772   42.717777
H   65.251427   82.970146   87.715393
H   10.642202   42.459198   82.294411
H   25.067324   30.592270   44.016479
H   72.942230   89.024353   91.061829
H   83.662117   28.098232    7.617641
H   83.131340   38.132221    6.043459
H   83.033562   34.223774   47.997269
H   71.380463   49.621067    8.804480
H   44.738293   15.434942   82.081139
H   80.739998   33.965015   91.952644
H   73.059586   46.381660   47.414635
H   41.139984   98.151382   77.862534
H   40.832748   87.642426   30.080177
H   38.945625   18.446569   63.923424
H    8.141061   81.812889   55.402233
H   28.188917   32.486015    2.430969
H   98.077255   53.578323    4.065408
H   11.760775   19.334663   40.974876
H   63.091881   72.374817   26.555107
H   93.833847   23.520975   73.745125
H   77.770920   35.389271   62.186317
H   96.454491   32.891014   74.045456
H   70.849487   96.149750   60.365143
H   12.179942   27.262226   33.800606
H   90.640358   17.045252   75.670303
H   41.497398   53.436859   69.057068
H   43.762512   32.853241   23.606445
H   34.200615   49.711197   54.339279
H   25.427774   15.847989   45.241714
H   91.589073   65.548744   87.443459
H   52.701984    7.805946   56.451313
