100
TIME:    5.934, STEP:  5934
H   16.030359   77.844170   93.713272
H   36.591743   26.418333   52.263996
H   81.762543    0.820244   53.689259
H   82.472610   88.168854   14.899718
H   42.020752   48.393692    4.810823
H   36.000881   94.779350   66.411095
H   41.969036   62.031094   54.499607
H   53.485596    1.969087   63.354733
H    7.758888   15.763621   26.562372
H   12.682337    1.586946   40.057835
H   48.288803    5.010023   68.155754
H   29.356651   21.131138   70.540520
H   65.406052    2.749168   35.389580
H   61.264565   86.785622    8.819363
H   52.677589   39.978409   65.532196
H   62.930634   92.719582   40.467499
H   46.930183   74.457985   13.583776
H   27.962683    6.090355   93.822792
H   37.691143   27.291712   75.987457
H   32.644676   79.796913   20.346888
H   12.144737   65.469788   96.185295
H   31.278702   51.961456   13.943329
H    6.515330   46.361382   62.571762
H   67.704704    7.816134   66.363998
H   17.350594   15.563469   80.363808
H   19.495802   51.236481   32.411163
H   50.383926   95.806961   17.705641
H   31.848400   33.418755   62.922035
H   40.200279   87.471100   76.669037
H   28.528503   43.973381   55.124405
H   49.596611   54.168186   39.899742
H   40.433537   88.562256   49.923943
H   88.340080   34.322151   32.378540
H   28.827847   29.906944   21.760931
H   33.269028   10.354443   86.067566
H   88.470337   50.205269    0.769858
H   48.946457   87.218872   76.041359
H   18.730209   50.360134   41.187016
H   94.595276   52.124504   69.263649
H    4.277330   56.662785    4.908773
H   29.704308   59.790588   82.148170
H    0.128667   64.873322   82.900261
H   62.353855   99.084381   30.093468
H    0.438781   12.244894   60.930130
H   41.925076   97.767990   63.898785
H    1.528112   76.098801    7.268721
H   88.094040   47.549454   82.426079
H   56.556324   56.488251   35.740192
H   38.486038   40.995590    7.763476
H   50.331676   21.050627   68.631271
H   43.094135   96.753723   15.981046
H   93.514381   13.108257   84.505836
H   31.961185   56.416077   58.232723
H   39.273186   10.382150   93.668175
H   68.321007   78.632736   50.820515
H    0.986548    6.291731   90.619431
H   72.440727   18.323967   20.360359
H   84.197906   16.494497   60.709335
H   58.277718   89.494743   55.928337
H   67.434769   83.895096   94.833519
H   34.022388    2.614315   51.733799
H   88.308662   72.709244   26.859123
H   76.920403    2.357168   26.558258
H   50.517410   74.088135   66.034729
H   67.855286   86.905563   48.176838
H   36.810844   47.276299   97.047722
H   11.472382   53.514553   53.556046
H   70.463753   56.909275   49.882114
H   52.653149   23.406929   88.062317
H   50.605835   46.605690   89.237823
H   33.602257   91.651352   90.965645
H   84.681534   54.587097   91.081497
H   20.083500   24.786606    9.598549
H   99.581444   73.855309   50.575096
H   48.272381   37.100719   51.235733
H   65.944832   87.886650   96.647034
H    5.723299   12.225996   95.993782
H   10.770442   62.712059   42.152931
H   46.068943   36.088696   83.888176
H    8.516310   85.766273    9.701751
H   26.991312   90.671616   34.649784
H   86.575241   82.953644   90.561577
H   93.212975    6.356389   95.067245
H   58.398376   19.944309   21.438160
H   63.392662   77.710457   72.517670
H   14.718220   27.019051   53.858215
H   63.473167   71.902641    6.499518
H   51.464043   30.228613   34.051422
H   78.830185   63.776543   79.658333
H   41.693478   65.137131   36.343613
H   66.866386   93.850891   58.777020
H   17.354807   41.772507   46.591560
H   65.834320    5.567594   77.889908
H   20.765980   73.182076   26.919436
H   53.996773   18.197689   52.442722
H   84.045639   61.404327   60.950119
H   91.589622    8.220775   95.919281
H   26.823336   80.072220   59.754448
H   26.030823   62.429440   48.003036
H    7.795549   26.359180   26.099400
