100
TIME:    9.174, STEP:  9174
H   96.922272   80.722176   90.746964
H   47.112320    1.988475   56.556095
H   37.463520   33.917686   15.651608
H   83.016434   54.681999   37.304337
H   12.992273    8.093725   16.961163
H   85.755615   91.269218   87.277954
H   72.159508   80.810661    7.871929
H   98.827988   82.269333   65.868507
H   28.113441    4.249246   22.616205
H   24.184614   48.110050   66.919930
H   46.911896   35.376709   56.062035
H    5.693527   83.535927   39.913277
H   58.754135    6.698902   13.420940
H    0.840407   76.799049   55.386501
H   92.033394   50.565926    9.723976
H   32.657349    9.337401   71.518616
H   86.388435   88.759819    8.533766
H   97.246231   48.432030   81.509842
H   88.154938   63.216076   46.682713
H   45.350849   10.993826   40.941154
H   19.878548   42.916992    8.246281
H   41.900661   56.262604   38.027420
H   63.256081   20.016298   69.871414
H   66.661926   46.575897   25.732824
H    1.470355   58.617355    4.290008
H    4.349766   55.653976   27.567415
H   70.995506   61.126621   81.993454
H   58.465347   84.651016   70.018028
H   10.650773   81.429192   23.511757
H   52.764610   63.782944   12.695423
H   77.111275   44.705853   83.561417
H   45.009205   99.046021   49.980934
H   16.560699   97.269379   24.263327
H   65.725449   32.980255   85.265877
H   52.640266   65.069466   83.206512
H   70.117661    3.979126   90.585152
H   59.704170   68.563240   31.340536
H   84.813377   91.063972   69.823891
H   57.836338   81.531944   55.283524
H   99.105545   53.344749   59.826881
H    8.273924   70.962738   58.479946
H   27.079254   77.579010   48.309162
H   90.238617   18.520634   64.119072
H   93.555824   66.634682   77.718697
H   60.878357   69.944054   41.156490
H   59.706238   37.890820   20.431715
H   13.415620   23.752008   13.530910
H   56.747555   89.859222   36.212284
H   33.195084   72.658913   78.520325
H   18.346098   70.370781   42.086895
H   42.871662   83.952751   50.137238
H   50.985699   12.459549   71.820015
H   99.159859   75.202698   70.062210
H   64.238525   57.525734   36.638741
H   10.347115   62.571350   78.369568
H    5.021965    2.883566   80.322174
H   77.843124   24.834816   28.511297
H   42.940613   10.515863   77.253563
H   13.812599   26.403276    7.197035
H   53.628437   32.932430    2.680199
H   38.404743   51.936672   99.120171
H   73.314720   42.551773   80.261314
H   96.883148   81.265526    4.381744
H   73.002930   91.737671   78.066544
H   96.454178   28.131306   49.903538
H   37.775459   86.206963   88.622841
H   51.521500   65.528564    9.982464
H   46.654892   42.208748    4.772858
H   14.131992   90.601212   84.855530
H   16.344162    9.431675   82.385712
H   30.709862   71.200722   52.107002
H   17.810873   46.987694   28.496647
H    8.829914   64.525078   26.527843
H   28.254116   68.796303   58.065529
H    4.392392   41.823460   96.880600
H   42.537712   95.539909   78.634964
H   99.977371   31.767422   53.446899
H   62.983402   50.861839   21.095184
H    1.441380   26.571789   20.038706
H   49.623497    9.267740   30.572838
H   90.411781   24.191599   28.300896
H   29.705936    3.969213   19.507433
H   98.149132   60.539951    3.627718
H   81.305199   97.197975   25.514378
H    5.633774   75.030746   58.437225
H   40.152538   46.030869   78.853546
H   79.865562   36.327629   60.994911
H    3.571908   70.962929    0.457916
H   46.072025   83.378899   53.159309
H   55.234699   31.833160   52.163689
H   99.460533   68.798264   27.200218
H   57.081997   85.452148    8.330216
H   73.524628    2.779169   28.444086
H   33.896935   69.748886   45.386272
H   97.976334   27.978542   26.893923
H   51.656387   33.460022   93.599701
H   34.412987   94.155968    9.582794
H   20.569368   40.389782   94.710045
H   71.684868   76.417747   76.619255
H    9.044716   43.214054   13.978971
