100
TIME:    2.111, STEP:  2111
H   74.564117   28.431778   97.213333
H   42.548973   19.199434   11.161270
H   16.041014   25.777489   98.555077
H   81.830933   45.677513   24.451679
H   76.263016   41.963474    8.467327
H   95.282356   98.921089   87.805168
H   42.332615    3.881532   55.535805
H   53.965858   71.229523   14.368443
H    1.735547   83.329285   67.208382
H   17.152243   46.694191   90.353630
H    3.894944   51.183109   36.407413
H   75.270554   29.504000   42.665367
H    8.982221   33.989082   15.312979
H   50.557045   98.569160   17.887707
H    6.177156   81.464355   49.299316
H   16.645973   27.093452   57.810318
H   54.346207   21.600807   65.554428
H   46.255714   92.042564   26.361485
H   78.142860   66.914337   74.577255
H   35.644157   60.982151   60.059334
H   39.006897   46.061123   99.948593
H   64.763977   46.886368   39.507111
H   57.559135   77.453590   71.951874
H   22.906776   61.999851   50.293617
H   54.082146   18.752808   52.137260
H   36.979488   64.705139   91.308189
H   80.045341   54.726826   41.856823
H   54.421204   54.974056   36.549900
H   57.072510   40.618141   57.383965
H   81.938805   38.592911   51.206814
H   99.142494   11.349749   42.367840
H   99.047150   94.188911    3.838230
H   19.053295   14.031586   87.972504
H   67.295967   80.262253   82.818390
H   28.299046   99.344574   53.272530
H   56.097942   50.314823   13.382939
H   82.271118   27.227385   74.803894
H   76.738716   20.316792   71.407951
H   55.968605   35.420349   39.740318
H   64.359825   14.558227    4.122839
H   90.978096   28.617235   92.078781
H   41.896545    6.599514    1.978443
H   29.424116   76.158981   53.952347
H   44.557213   48.151657   87.136276
H   73.541237   48.600315   36.754860
H   50.852741    3.180866   91.742012
H   58.221218   39.641571   45.719254
H   56.352154   17.118078   99.194679
H   26.736944   57.615421   60.267487
H   70.161980   62.880169   36.018276
H   43.383564   65.840096   75.674896
H    7.723894   67.854935   35.478939
H   52.670082   34.249023   80.266685
H   27.807423   72.765984   24.968596
H   72.704208   43.566715   18.318983
H   96.207565   10.313389   20.763382
H   30.080034   28.635216   56.761131
H   68.867523   77.529572   59.181351
H   56.765953   27.964048   49.421204
H   19.715038   90.046005    3.568538
H   92.863815   80.400093   49.804882
H   23.988503    8.294884   99.836990
H   17.420258   63.198967   88.735275
H   87.998047   53.277809   69.829521
H   16.110554   92.241791   92.154434
H   71.663216   37.328896   71.004143
H   18.199125   21.346094   68.981339
H   34.544685   38.268066   67.120605
H   62.116005   98.103340   27.834076
H   73.150940   54.321358   97.287964
H   54.998924   51.767387   36.829166
H   99.906128   81.465012   11.178812
H   69.350449   13.888508    7.618649
H   83.733116   15.790919   77.745552
H   63.949493   31.647402   61.426128
H   75.565315   42.868202   53.885235
H   58.620888   43.579727   28.383486
H   31.158947   12.687117   31.022602
H   62.740753   47.318058   41.230202
H   95.997841   93.984238   39.056587
H   52.192738   51.120922    6.158595
H   99.713104   58.013992   10.256773
H   51.365894   42.491852   30.962101
H   95.387276   92.802589   70.613342
H   49.541580   16.839264   43.114609
H    2.703547   86.595451   88.377403
H    8.143652   49.866028   24.204054
H   89.938095   36.282669   73.795082
H   99.490669   76.635231   10.928974
H   79.698044   22.422569   99.682152
H   10.413483   87.419403   78.042191
H   34.480663   54.271770   73.744911
H   20.729664   90.885666   82.227707
H   51.264568   41.280598   69.151360
H   20.093613   60.640060   64.595177
H   68.281525   12.370550   58.413071
H   95.041428   88.826591   15.784004
H   14.616010   34.211578   22.259190
H    8.150179   45.949986   68.221176
H   70.341568   24.480080   94.365997
