100
TIME:    0.235, STEP:   235
H    1.430766    0.470704   98.930862
H   94.733238   17.486065   92.824280
H   83.802063   90.810951   20.580582
H   81.516052   22.968454   27.281763
H   93.066177   91.593811   59.333351
H   24.372250    0.957882    2.017864
H   40.653980   77.206490    8.829906
H    1.415760    8.933060   86.617088
H   47.851250   63.699097   85.294823
H   68.418419   19.760860   16.891451
H   78.395905   75.698303   17.113422
H   46.872227   35.469872   76.201637
H   28.314384   47.489624    1.772269
H   43.446140    4.352708   75.124229
H   83.361046   49.031021   39.476276
H   92.074753   91.182320   13.532612
H    5.172756   97.538033   94.751228
H    6.166515   83.272507   91.399216
H   48.923622   88.211411   75.742599
H   86.288155    0.604696   32.220192
H   50.331314   32.822495   50.863518
H   84.881081   44.410110   99.245186
H   82.606438   92.710976   25.627018
H   97.207458   39.500217   89.621521
H   21.178228   67.536919   38.293716
H   45.580235   20.608456   67.145592
H   41.814541   32.708019    4.629539
H   12.712524   67.408188   74.543381
H   16.281189   70.413048   46.063293
H   10.004846   85.023453    2.070859
H   25.345980   43.116020   90.816063
H   80.595459   46.017792   77.508965
H   86.910950   51.288292   18.967611
H   88.031273   52.186310   61.851051
H   74.930534   41.156052   39.037994
H   92.987144    2.945990   19.835730
H    2.338970   95.929054   26.982250
H   54.275871   54.653065   39.024357
H   40.155788   75.491432   19.602745
H   41.059010   90.183189   56.524231
H   19.182369   64.241905   47.875805
H   10.500717   22.403902   13.840760
H   13.265634   64.909164   18.447708
H   64.353088   16.710039    3.708995
H   36.271088   22.619926   76.216980
H   74.950111   67.621880   84.239845
H   38.561451   38.418011   29.631292
H   56.251965   97.802063   83.118423
H   71.897270   12.987019   35.099602
H   30.818487   34.326244   67.227554
H   43.526455   46.956177   55.895008
H   16.553526   41.932770   58.635834
H   13.753939   23.371338   89.221626
H   71.244217    3.367825   42.185810
H   22.050919   79.106552    2.400244
H   93.860275   12.285099   84.626846
H   11.150490   82.766014   78.337852
H    8.560804   54.693825    7.501740
H    8.811607   48.698227   93.442261
H   43.510704   45.851227   56.925308
H   74.524582   67.640732   96.073853
H   90.570526   25.758011   84.721848
H   90.172722   91.127953   17.436249
H   59.177391   43.072823   20.760099
H   41.649673   42.075253   17.445932
H   86.909035   30.590595   60.080898
H   68.714104   56.485424   78.407883
H   64.132713   30.977638   77.436958
H   68.616142   32.900719   45.494312
H   35.147156   59.964867    1.236595
H   14.570093   79.415016   59.328953
H   54.589520   43.726372   73.827980
H   91.668945    6.683575   55.723782
H   25.018425   34.508259   89.241859
H   73.501022   28.978075   19.212540
H   31.213858   22.633478   80.116684
H   88.291473    6.175882   95.190979
H   43.021057   35.354542   27.418072
H   72.817940   52.812656   20.308788
H   88.000626   96.155357    0.675804
H   15.480600   31.712736   94.034348
H   58.956173   45.762283   67.130188
H   32.665318   11.179776   52.282410
H   66.336823   32.270847   41.965523
H   40.887512   34.184608   24.971737
H   45.886112   17.684530   58.102787
H   82.849831   86.266502   34.748882
H   59.738205   86.479454   93.295860
H   60.560005   81.087959   26.278210
H   45.558357   99.617798   32.612637
H   33.639744   86.120712   38.424511
H   95.674248   13.180559   38.002090
H    0.362554   34.672676   37.095299
H   69.942146   27.486696   42.663280
H   52.528919   28.679707   21.486938
H   13.331665   86.451591   55.310905
H   43.948906   81.166634   23.673912
H    7.728072   18.238556   52.275337
H   97.517357   37.863285   25.367138
H   53.835796   72.667397   75.052109
