100
TIME:    6.275, STEP:  6275
H   92.970047   46.572655   93.401077
H   27.174534   44.897663   73.765236
H   87.626602   25.352272   49.685360
H   82.529846   74.120087   96.208130
H   38.966446   75.726349   95.565048
H   30.711781   94.409920    0.180172
H   24.097908   85.055687   81.166252
H   26.683670   31.469151   32.044193
H   99.376396   82.977661    5.097346
H    3.367224    6.483533   53.409367
H   16.569809   18.730536   35.309929
H   16.340729   38.223804   46.267372
H   43.646072   82.128517    1.506035
H   44.380028   85.734566   34.770557
H   56.822151    9.518890   49.137165
H   49.220078   62.894569   12.161012
H   19.509071   97.014061   44.626350
H   35.255032   89.497696   82.001015
H   43.001057   41.598038   93.954269
H   23.458344   72.553993   43.563774
H   91.909332   31.521313   86.928719
H   63.970703   52.414139   84.904083
H    1.962091   43.588051   52.815674
H   36.019833   11.895479   41.037434
H    5.154904   88.520691   82.882179
H   17.941332   41.155190    0.344942
H   20.978264   81.633316   24.472464
H    3.076037   49.335487   74.192520
H   47.614906   18.409153   60.549377
H   41.603916   35.533714   82.233322
H   63.018387   84.746834   12.920906
H   61.964573   79.139175   18.355843
H   12.359268    9.373762   63.098511
H   43.235924   98.656509    7.396053
H   24.788864   84.564522    6.826138
H   18.112711   76.913536   99.697609
H   81.652870   74.731079    2.910870
H    4.636438   44.118839   65.249565
H   80.203094   44.694267   36.217827
H   72.157883   24.738560   31.738016
H    6.400242   71.491753   90.181984
H   71.391129   66.210556    0.310299
H   65.289948    1.129664   54.723137
H   78.663239   17.968466   94.272301
H   12.346352   84.312393   93.078598
H   97.126701   82.602859    8.654085
H   90.758102   66.093826   85.698921
H   56.574535   60.000443   56.839359
H   48.452858   12.754967   94.161118
H   57.486012   26.241503   44.784149
H   43.070721   63.832779   19.575191
H   10.086452   81.466553   62.121468
H   39.035000   58.393311   38.426563
H   31.377258    4.817927    8.715224
H   41.170464    8.515538   53.721325
H    1.411264    5.933032   79.010986
H   94.060219    8.484130   52.792198
H   58.806061   84.291008   51.926254
H   85.172745    3.903062   29.750801
H   44.932930   10.104772   85.134666
H   55.532612   86.755142   25.147808
H   76.205910   69.535263   11.429088
H    0.069653   79.088173    3.174866
H   73.933517   75.945694   56.776119
H   81.388931   59.671352   79.932259
H   15.863575   30.324120   17.210814
H   84.113235   65.302795   70.019119
H   46.908653   76.411049   66.183884
H   69.648689   98.904861   66.676971
H   57.513145   63.758194   88.519775
H   22.773190   68.450073   86.875893
H   56.563877   43.270035   16.047539
H   97.848938    7.920280    0.854551
H   92.073158   52.273655   30.313761
H   64.712151   37.587223   77.085464
H   74.004662    9.740982   73.700714
H   36.687099   82.683617    2.029569
H   26.791241   40.413544   60.986084
H   62.420147   35.087070   87.691750
H   91.793533   67.190681   80.324364
H   33.664474   94.199417   55.030903
H   12.168430   85.165161   62.036976
H   14.782098   12.058591   27.542610
H   81.859200   49.124657   90.293053
H   46.789101   56.381416   39.461441
H    6.869169   39.545349   77.538193
H   86.247780   47.109169   22.759695
H   56.948265    2.941484   30.515816
H   85.906601   44.789894   76.869392
H   11.544049   51.106785   48.532219
H   80.821495   12.264210   65.978317
H   42.585354   67.419312   53.087814
H   87.693161   15.799779    4.259959
H   53.721188   93.870186   49.912582
H   48.101494   87.653152   60.278812
H   12.210906   47.938324   43.337128
H   64.522331   27.789145   76.308243
H   26.165125   96.946350   52.909576
H    9.786534   63.899357   19.439812
H   28.975618   17.608620   93.249489
