100
TIME:    0.220, STEP:   220
H    2.445129    1.846269   98.944595
H   95.150490   16.672791   91.878082
H   83.544342   89.731773   20.756706
H   81.513535   23.586493   28.103964
H   93.200531   90.391495   59.740074
H   24.604851    0.974208    0.532338
H   41.440075   76.193687    7.656862
H    2.594732    7.635390   87.994270
H   48.219978   65.141281   86.238960
H   68.828346   19.545540   16.304026
H   79.791168   75.094742   18.558296
H   47.444775   34.717995   77.269371
H   29.268536   48.397141    3.263127
H   44.188862    4.398956   73.982796
H   83.178627   50.370781   40.197369
H   92.677856   92.494270   14.777729
H    6.378691   96.546059   93.385490
H    5.845980   84.001953   91.919235
H   48.690048   87.582214   74.952271
H   86.694191    0.919237   31.196863
H   51.221436   34.315834   51.270584
H   83.442787   44.390312    0.522395
H   82.806709   92.832970   26.056229
H   98.601120   39.320316   90.735489
H   21.714670   68.726418   38.182938
H   45.648670   21.055748   68.551384
H   43.108067   33.331608    4.331892
H   13.978127   66.708038   74.047623
H   15.955028   69.052116   46.772369
H    9.429694   85.394699    0.878435
H   24.755922   41.770882   92.003044
H   79.648346   46.432182   78.897591
H   85.854431   52.385780   17.616293
H   87.397499   53.560974   62.482994
H   75.303383   42.289932   38.124641
H   91.682976    1.767649   19.887342
H    0.900283   96.478371   25.800304
H   54.895798   54.927608   37.965893
H   40.830189   75.811638   21.040466
H   42.471783   91.587379   55.344002
H   20.207417   63.727207   47.522297
H   11.848831   21.730646   13.136062
H   13.136458   64.819214   17.364239
H   65.310959   16.458670    2.242370
H   37.572166   23.211758   74.933411
H   75.141685   67.339897   84.181023
H   38.403065   37.608799   29.503119
H   56.251163   97.647568   82.190308
H   71.458733   14.229275   35.698013
H   30.503889   34.097935   68.276749
H   43.527142   48.404427   55.737652
H   15.824594   43.324715   59.620598
H   13.442802   23.284363   90.092751
H   71.591431    3.612586   41.523884
H   23.245110   77.791626    2.272964
H   93.841507   12.300892   85.137482
H   10.199572   83.198830   76.911232
H    9.677776   56.110374    7.888121
H    7.628631   48.064453   94.593765
H   44.500961   44.698235   57.351143
H   73.578384   68.338364   97.243439
H   91.102905   25.897629   85.400482
H   89.155342   92.150826   18.465302
H   58.147308   42.991226   21.167395
H   41.054237   43.273335   16.049009
H   87.830513   31.336292   59.193981
H   69.917564   55.966892   77.683701
H   65.168861   30.119732   76.719872
H   67.868614   33.978523   46.435131
H   34.843315   59.210358    1.268138
H   15.046453   80.435600   59.508854
H   55.826283   44.224190   72.729805
H   92.646957    7.425495   56.108418
H   25.348587   35.457546   90.133354
H   72.777756   28.956732   18.075397
H   30.859205   21.672117   81.126053
H   86.929626    7.475974   94.925476
H   42.316330   36.335407   26.589634
H   72.099022   52.856487   20.141533
H   88.736252   96.972237    1.968053
H   15.187088   31.557497   93.137817
H   57.830647   45.664322   68.384460
H   31.716244   10.929408   50.853729
H   65.305023   30.987278   43.335609
H   41.617874   35.122910   26.425823
H   46.231724   17.133211   57.061260
H   81.848015   87.357124   34.033627
H   59.496735   87.680397   93.451729
H   60.248726   81.923149   26.400948
H   46.884499    0.235047   32.076366
H   33.025883   85.310699   38.107738
H   94.564400   12.052458   37.716331
H   99.400124   34.223267   35.934868
H   68.492409   26.576834   41.651966
H   52.788242   30.023357   21.142300
H   12.092728   87.043938   56.085670
H   45.139549   80.305809   24.536568
H    7.673012   18.110840   52.515320
H   98.231926   37.798626   26.623585
H   52.904247   73.052605   76.496811
