100
TIME:    4.800, STEP:  4800
H   92.718422   81.836922   94.751480
H   67.911018   64.970428   80.761597
H   62.262306   19.235111   67.002327
H   82.282272   34.891167   77.059456
H   52.177887   57.498672   35.556046
H   53.589855   96.007896   54.106838
H    1.403103   85.456589   65.819260
H   42.615761    3.863649   67.474739
H   35.634773   24.793076   97.943382
H   43.668327   85.304253   95.651184
H   53.770721   59.380939   77.388718
H   72.639549   64.289848   51.259560
H   37.769119   71.324654   48.069824
H   17.413563   90.280922   22.521959
H   38.886726   41.271790   20.040215
H    8.525940   91.903397   34.599548
H   38.119759   99.454391   10.351286
H    3.712785   61.264492   33.132763
H   20.030022   79.719696   16.245501
H   63.193947    3.882624   43.138924
H   79.437920   78.362457   26.964355
H   22.561020   50.456055   10.513901
H   21.657112   55.584129   95.015762
H   73.069473   94.250122   50.583839
H   57.908356    5.494781   71.988930
H   24.665213   84.756592   39.047932
H   48.169884   42.947140   95.205482
H   27.532059   80.487488   25.434076
H   15.542798   84.585716   30.272884
H   85.046982   72.039604   64.974800
H    4.964405   52.480274   29.618217
H   68.832161   19.894165   54.903999
H    8.462332   17.291471   30.218863
H   80.912659   33.831299   69.534874
H   61.456375   96.076767   17.015320
H   89.893723   61.385303    4.336478
H   40.181458   28.750134   86.686630
H   65.597145   71.112679   61.162914
H   42.463757   76.833855   79.156769
H   11.087446   62.824295   15.687960
H    7.206100   20.883741   55.431622
H    0.223818   27.283987   28.307878
H   52.586048   92.284119   48.182434
H   72.846573   93.210785   50.054298
H   40.291203   42.507271   66.859520
H   16.161129   54.469471    2.660369
H   79.234665   85.877769   71.542198
H   56.495762   44.808411   65.574730
H    5.341161   34.913540   53.001465
H   26.548061    3.790419   47.945213
H   43.178410    6.234188    4.026513
H   38.402840   18.334879   58.952110
H    8.437818   49.840759   24.092085
H   65.531700   28.887550   43.626549
H   58.611938   79.250740   41.173832
H   99.572098    7.484589   29.223480
H    0.552001   51.044823   12.507475
H   68.637589   23.586992   89.917587
H   68.841545   41.581268   42.984642
H   42.267834   96.731262   27.087166
H   62.488403   55.348492   40.149773
H   28.553617   83.264359   78.170166
H   99.931862   79.739548    4.320061
H   72.647865   67.910797   96.817596
H   22.841936   77.476593   42.572468
H    6.474228    3.650858   29.996786
H    2.455087   14.311688   98.805466
H   48.796989   92.053848   95.670357
H   96.132462    4.888931   59.186302
H   27.634661   89.568359   91.625702
H   69.610771   68.807953    4.567374
H   78.184723   92.222137    8.054881
H   94.021912   80.878395   38.677025
H   24.541927   45.626408   17.953766
H   93.599007   35.482845   65.270599
H   39.133736   15.207285   72.949509
H    2.763423   10.513859   75.939064
H   57.493053   36.860088   79.526314
H   91.690956   39.419613   71.239342
H   64.124115   47.535954    7.396966
H    4.800550   78.939865   66.873665
H    1.474306   75.575211   85.404198
H   21.484980   87.392273   87.071503
H   80.381744   22.905523   25.011330
H   18.608980   48.642845   82.446297
H   40.820499   85.366798   75.109726
H   87.735863   54.353821   52.426086
H   33.218094   20.994917   45.825356
H   55.297470   26.915564   88.932991
H   41.954258   11.789467   95.806580
H   20.458488   32.618359   34.829021
H   33.450291   56.485031   24.988180
H   93.142921   71.544746   90.195908
H   11.165502    4.387658   50.457287
H   73.601601   19.774544   26.384632
H   90.381882    6.185299   19.522942
H   81.601097   43.142712   61.136581
H   24.484655   57.106812   79.224983
H   80.052246   57.541210   42.987122
H   37.357151   55.455799   35.341038
