100
TIME:    0.509, STEP:   509
H   82.901039   75.343452   98.680008
H   87.111443   32.341900   10.107873
H   88.509766   10.523635   17.363373
H   81.562042   11.678957   12.262765
H   90.611984   13.556115   51.903877
H   20.123402    0.659666   29.153273
H   26.294235   95.707008   30.257235
H   79.879898   32.636875   61.460350
H   41.115807   37.355194   68.048576
H   60.930412   23.694050   27.621752
H   52.909088   86.723358   90.720039
H   36.413685   49.204155   56.697701
H   10.885377   30.912323   74.537926
H   29.879093    3.507903   95.974419
H   86.693230   24.557756   26.304777
H   81.058060   67.217354   90.788559
H   83.143715   15.657974   19.698202
H   12.021436   69.947952   81.900192
H   53.190239   99.704727   90.179276
H   78.871223   94.860016   50.913033
H   34.071762    5.544183   43.427773
H   11.154128   44.771759   75.915718
H   78.948143   90.482552   17.786770
H   71.749908   42.786411   69.273041
H   11.379225   45.806988   40.317276
H   44.325085   12.443206   41.464737
H   18.186750   21.318115   10.066648
H   89.593163   80.197586   83.599228
H   22.238983   95.272728   33.110840
H   20.510721   78.242020   23.852406
H   36.124363   67.687218   69.133873
H   97.896057   38.448257   52.143394
H    6.210524   31.240877   43.651695
H   99.608208   27.075775   50.307564
H   68.119835   20.443832   55.721909
H   16.810673   24.470350   18.892935
H   28.619064   85.894875   48.572460
H   42.951881   49.638065   58.358967
H   27.837097   69.642342   93.341156
H   15.251675   64.533318   78.081718
H    0.458172   73.644768   54.333218
H   85.875145   34.702042   26.713690
H   15.625234   66.552261   38.238754
H   46.855988   21.301722   30.499210
H   12.503857   11.809346   99.663513
H   71.450691   72.772758   85.314339
H   41.454639   53.199612   31.972601
H   56.266598    0.623968    0.072006
H   79.907890   90.294174   24.169367
H   36.565144   38.496700   48.064011
H   43.505787   20.503000   58.783695
H   29.868673   16.507214   40.647476
H   19.437677   24.960083   73.309090
H   64.901779   98.897240   54.276997
H    0.237386    3.126032    4.725262
H   94.203110   11.997009   75.299240
H   28.520218   74.859917    4.397526
H   88.157654   28.818184    0.443841
H   30.420631   60.275162   72.408112
H   25.430153   66.912308   49.132408
H   91.808456   54.898819   74.709412
H   80.845734   23.207657   72.325455
H    8.757589   72.443474   98.638527
H   77.992012   44.563316   13.320173
H   52.526306   20.190853   42.963509
H   70.076698   16.969196   76.281914
H   46.730888   65.957703   91.636276
H   45.205742   46.647751   90.535744
H   82.270988   13.212822   28.308689
H   40.697311   73.745750    0.660414
H    5.868642   60.771984   56.042759
H   31.997980   34.632896   93.887978
H   73.803925   93.130104   48.697765
H   18.987465   17.168837   72.957222
H   86.712692   29.367945   39.983936
H   37.692173   40.194824   61.679142
H   13.168509   82.428093    0.040821
H   55.894073   17.438110   42.550869
H   85.950172   52.011570   23.363987
H   74.563187   81.233696   77.070404
H   20.842564   34.547497   10.410603
H   79.514214   47.551712   44.217003
H   50.001453   15.753167   78.379639
H   85.184357   55.717381   16.938606
H   27.545885   17.044975   98.410728
H   39.577976   27.750263   77.129707
H    1.149674   66.344475   47.814220
H   64.149063   64.542229   90.448662
H   66.246040   65.831825   24.036198
H   21.333714   88.341888   42.408504
H   44.852940    0.916874   44.210888
H   15.947800   33.787300   43.221954
H   17.942249   42.881889   58.292503
H   96.424019   44.107613   61.136623
H   47.791950    4.135726   27.782341
H   35.962921   75.631401   41.158531
H   22.200293   96.891029    7.915802
H    8.734033   20.571503   47.891655
H   84.464561   39.044392    2.415978
H   70.852097   65.630928   48.662216
