100
TIME:    1.082, STEP:  1082
H   44.150795   22.796303   98.155411
H   71.172432   63.411167   46.252438
H   98.354706   51.747234   10.635414
H   81.658218   88.071007   80.855705
H   85.479675   59.484596   36.367058
H   11.238037    0.036048   85.899773
H   96.263405   34.399586   75.066582
H   34.843231   82.208542    8.847775
H   27.030373   82.263443   31.978640
H   45.271187   31.919296   50.061394
H   99.610031    9.779092   35.525932
H   14.542355   77.925850   15.911135
H   74.435486   96.244713   17.587168
H    1.507686    1.741233   39.581135
H   93.661629   73.375885   98.760727
H   58.019501   17.096745   43.225082
H   37.075340   53.551376   71.868874
H   24.266052   42.083099   62.035446
H   62.112762   23.744158   20.367006
H   63.364792   82.837265   90.000267
H    0.069225   48.501404   27.877258
H   66.097038   45.528053   27.124874
H   71.297768   85.822380    1.391897
H   18.512039   49.658634   26.715637
H   90.885979    0.363737   44.545685
H   41.697727   95.369766   87.757065
H   68.777618   97.498856   21.437292
H   41.244850    6.943449    2.537436
H   34.698166   47.259281    6.026197
H   42.481457   64.060410   69.404533
H   58.664555   19.072233   23.791588
H   34.075199   22.618538   99.097939
H   46.572773   89.318352   95.272057
H   23.819084   74.563911   26.167879
H   53.877022   77.129189   90.615326
H   66.630585   69.481155   16.921324
H   83.576683   64.910988   93.722786
H   19.270691   39.150494   98.796059
H    2.076705   57.410484   38.422539
H   61.280228   10.889683   23.163229
H   61.297348   93.308418   67.835983
H   34.377190   60.420418   53.634266
H   20.560736   69.988373   79.626747
H   10.266634   30.904036   86.526131
H   62.798958   89.200882   48.698784
H   64.128258   83.554268   87.565468
H   47.504993   84.108658   36.868843
H   56.297199    6.523630   35.525936
H   96.660027   42.837570    1.311560
H   48.582790   47.218128    7.989158
H   43.462070   65.183434   64.825302
H   57.715874   63.338474    3.029553
H   31.324175   28.282532   40.028992
H   51.634136   89.550667   79.562576
H   54.622742   53.359379    9.587622
H   94.920059   11.394815   55.792969
H   64.844299   58.326363   58.894661
H   45.490417   74.706047   85.685135
H   75.611427   84.485321   28.417282
H   87.618011   10.953321   32.834923
H   27.954416   28.253654   30.034546
H   60.508850   17.874252   46.398643
H   47.624763   33.369728   59.328712
H   17.337851   47.680298   97.762123
H   75.269798   74.427238   96.325508
H   34.876228   88.483711   10.161823
H    0.757223   85.769989   19.301437
H    5.624599   79.417587   17.928457
H   10.827927   72.040710   92.370796
H   52.304024    2.563869   99.454742
H   87.673317   21.781874   49.170536
H   84.751114   15.616226   35.840408
H   36.443863   64.784370   34.004673
H    6.376109   80.909027   38.902122
H   14.339925   30.183256   83.420586
H   51.239895   76.919456   23.125118
H   65.194542   32.766228   10.179672
H   82.814651   79.972023   74.195786
H   13.414812   50.332859   29.753143
H   46.462265   50.026947   27.705811
H   32.055828   40.475445   44.656857
H   22.506111   51.293839   96.300858
H   86.258171   25.316164   32.954929
H   24.601477    4.749733   64.601295
H   99.644409   81.204620   42.864632
H   26.388729   48.799282   16.920815
H   39.419060   24.682716   75.136993
H   73.373230   18.666843   84.494484
H   78.136909   33.927574   19.347610
H   70.674210   64.761246   62.894024
H   68.302437   31.857058   56.311596
H   58.343998   76.882957   54.137947
H   54.706932   60.049332    2.621028
H   51.807823   78.864677   99.772881
H   37.885807   52.811363   40.949028
H   83.290329   53.003777   11.562344
H   76.718399   29.774031   74.962189
H   10.837886   25.450256   38.724319
H   57.168022   41.514370   54.416409
H    6.437302   50.912090   93.473579
