100
TIME:    6.538, STEP:  6538
H   75.184158   22.454554   93.160294
H   19.911896   59.150051   90.347206
H   92.149323   44.273506   46.597309
H   82.573990   63.284821   81.793213
H   36.610779   96.806961   88.433838
H   26.632504   94.124992   26.225964
H   10.314252    2.813756    1.733207
H    6.012390   54.221203    7.895764
H   92.911354   57.691360   88.543007
H   96.183388   10.260225   63.706882
H   92.106201   29.312979    9.976604
H    6.302055   51.406712   27.546680
H   26.863449   66.224754   75.372978
H   31.357693   84.923927   54.785702
H   60.016548   86.026451   36.490002
H   38.645660   39.891701   90.329590
H   98.359932   14.409419   68.568275
H   40.879337   76.700043   72.883339
H   47.096386   52.631950    7.810348
H   16.373283   66.967812   61.470055
H   76.302536    5.338119   79.789482
H   89.184769   52.763275   62.507187
H   98.450478   41.449089   45.291183
H   11.583134   15.041719   21.504396
H   95.748604   67.664810   84.824501
H   16.742430   33.379883   75.612465
H   98.299507   70.701736   29.691450
H   80.884018   61.611443   82.884811
H   53.333519   42.270245   48.116913
H   51.688740   29.024529    3.141247
H   73.368263    8.331134   92.113258
H   78.570618   71.871521   94.008675
H   30.884663   90.131523   86.791626
H   54.348091   74.554062   96.316528
H   18.243561   64.651711   22.827951
H   40.974514   97.512581   98.870918
H    6.878636   65.099731   23.634008
H   93.765663   39.305172   83.809975
H   69.102966   38.963615   10.731710
H   47.386600    0.117104   52.431355
H   88.426010   80.517128   96.378151
H   49.226990   67.241913   13.736882
H   67.553314    2.707390   73.719994
H   61.868832   22.382833   19.986967
H   89.532646   73.934616   15.584540
H   93.731651   87.619186    9.722563
H   92.812790   80.396378   88.223137
H   56.588581   62.709259   73.112320
H   56.139877   90.973183   83.670975
H   63.005978   30.245535   26.394602
H   43.052662   38.442139   22.347214
H   22.870831   57.062553   44.857277
H   44.490757   59.918274   23.151426
H   25.287437    0.526456   20.319996
H   20.229744   31.563717   55.958607
H    1.738830    5.656382   70.057846
H   10.733516    0.894980   77.805611
H   39.222321   59.454170   45.152206
H    5.915826   15.016734    9.560928
H   27.578445   30.320568   77.654320
H   72.122612   74.523331    4.642792
H   66.871529   67.087296   99.528778
H   17.924852   61.141762   85.140167
H   91.992294   77.378357   49.634876
H   91.826904   38.664982    4.424152
H   99.707947   17.249565   32.761429
H   63.012558   74.396393   82.716446
H   28.741524   91.452003   78.756805
H   82.755348   80.007355   50.181606
H   62.840485   76.985283   87.965973
H   14.421101   50.555832   83.721626
H   34.879299   34.541626   35.303383
H   80.701126   94.911163   94.112366
H   86.282310   35.629482   14.687902
H   77.393425   37.962444   97.022354
H   80.220894   26.596844   56.004021
H   60.572842   59.921169    6.694001
H   39.147457   23.216082   75.509773
H   75.032951   34.314556   90.625298
H   78.895554   52.864052   57.666618
H   38.811226   96.920273   70.750061
H   31.903566   86.870712   40.035366
H   31.418243   16.456457   52.590134
H   99.954094   71.629906   66.270866
H   33.983421   39.929871   13.966501
H    0.815716   49.206795   95.801636
H    3.812978   27.986931   35.300514
H   61.178032   81.896851   27.788940
H   91.364365   30.146360   74.718391
H   88.291641   40.285564   57.932816
H   91.584526   26.465431   71.532394
H   62.044689   87.199692   58.098122
H    4.551959   23.691463   24.598154
H   79.139107    9.825841   67.646301
H   43.554695   64.096481   66.322479
H   33.933609   37.552521   29.752914
H   43.646385   42.881989   61.183014
H   25.657473    9.959817   47.630394
H   97.257988   65.034874   97.410362
H   45.310787   10.859653   67.915031
