100
TIME:    3.370, STEP:  3370
H   89.423248   12.975092   96.060684
H    7.527092   87.460861   90.578629
H   37.681999   16.355312   83.781960
H   82.042252   93.805351   55.443081
H   64.986267   42.877865   74.330307
H   75.764168   97.557121   12.488075
H   76.347740   88.895897   53.991325
H   55.010941   80.149490   98.771080
H   70.786903   62.281631   87.957466
H   82.748070   64.771568   39.656143
H   86.785843    1.841969   15.134367
H   27.216949   92.611526   53.048546
H   28.897053   57.817719   90.178490
H   88.218559   94.688576   13.698009
H   21.492836   69.005356   88.779457
H   66.024048   16.976715   53.302101
H   53.111824    4.870899   80.172745
H   73.157188   30.817696   82.711609
H   97.757103   19.728281   40.906391
H    1.727463   34.250301   45.777885
H   64.296143   20.722969   65.772552
H   85.465530   48.557709   32.291626
H   40.749672   67.214226   35.931595
H    5.932016   77.099548   56.788998
H    9.054072   18.901131   61.428017
H   31.205976   27.195227   73.300331
H   71.480759    2.389163   66.839394
H   48.190662   13.739899   78.166862
H   84.447922   54.844620   97.871315
H   30.213329    7.432307   51.293701
H   48.686794   24.250223   42.755272
H   78.541115   59.399399   87.286293
H    7.735210   21.916885    1.393168
H   20.491852   64.882362   29.777531
H   97.001266    4.173896   29.937813
H   65.563988   49.216732    9.054311
H    3.026258   81.118637   74.008171
H   24.703873   97.274940   60.251789
H    2.822376    7.991510   17.734190
H   45.776852   96.694748    3.178419
H    4.936601   71.814865   21.741438
H   28.744774   63.107758   61.126572
H   40.268620   83.708832   44.891964
H   64.161743   69.252350   10.235038
H   64.331978   98.929810   44.491146
H   34.609997   27.194386   96.852089
H   68.062790    8.109372   57.812462
H   56.419392   30.080576   77.094444
H   63.535263   53.345337   10.042624
H   96.557640   82.033913   47.961498
H   43.287510   44.292023   88.949570
H   68.908432   51.028870   52.828678
H   78.781746   41.549133    7.144485
H   98.654564   52.224113   80.525665
H   72.468765   53.922691   29.010485
H   97.782852    8.989706   77.904053
H    9.895989   92.306572   76.502449
H   75.119133   58.632782   26.752716
H   56.060562   81.159164   52.767155
H   36.633339   86.817230   67.759773
H   72.282784   21.852188   51.643314
H   79.306725   96.574600   42.873360
H    2.849137   77.320244    2.379459
H   74.452141   60.126465   35.645512
H   66.085564   91.687508    9.402352
H   94.320869   74.740181   45.444504
H   17.187107   64.869568   29.766588
H   47.576881   10.270785   27.308088
H   24.862129    7.639610   48.872860
H   98.662903   17.643469   94.636871
H   15.019236   66.104988   21.723129
H   96.095627   39.681488    3.356913
H   87.260849   51.611095   75.342278
H   56.027645   36.118996    2.920815
H   24.653238   33.442669   56.866978
H    5.324295   23.557661   69.170197
H   72.929787   34.457253   50.649601
H   90.309052   30.364115    0.551158
H   23.116987   43.619976   55.282913
H   34.254280   25.415894   30.592606
H   76.825607   64.145859   81.406021
H   94.178787   66.236221    4.979822
H   31.018736   63.508484   50.875706
H   82.000381    0.536847   55.618622
H   88.237869   38.089367   21.068596
H   73.732849   32.839424   75.806183
H   92.229393   58.326469   84.237854
H   10.203089   35.483887   60.695732
H   25.621006    6.536386    0.628757
H   68.386108   70.626053   44.686279
H   61.936890   55.400806    4.630044
H   27.638781   48.948235   97.739220
H    1.478217   28.633665   79.611717
H   72.951668   17.647648   54.039543
H   98.323738   47.866116   93.526665
H   72.269760   62.653572   93.383873
H   95.107941   61.077969   43.378014
H   19.236929   44.931213    2.113503
H   48.174339   51.377041   62.765106
H   48.533772   92.154610   73.097519
