100
TIME:    9.296, STEP:  9296
H   88.671783   69.534126   90.635269
H   43.742874    8.599722   64.249016
H   39.560581   42.695000   14.219360
H   83.036911   49.655754   30.616735
H   11.899065   17.872375   13.653448
H   83.864258   91.137047   99.359558
H   65.765007   89.048119   17.412487
H   89.239029   92.824448   54.666649
H   25.114449   92.519363   14.936754
H   20.851934   49.861790   71.696724
H   35.563751   40.285675   44.309929
H    1.036810   89.651192   31.229084
H   50.974625   99.314690    1.297039
H   94.799637   76.423012   64.671028
H   93.515205   39.668282    3.857149
H   27.751701   98.666672   61.391663
H   76.577950   96.829735   19.639906
H   99.856155   42.495476   77.280350
H   90.055603   68.333679   53.109791
H   42.064243    8.402983   49.247490
H   12.638784   30.771212    4.934669
H   53.596920   56.424561   27.637985
H   61.627205   19.024546   66.380966
H   55.326099   48.035370   16.672087
H   97.106918   48.941833    5.190544
H    3.774284   52.057419   16.086634
H   60.475449   56.054768   84.413498
H   48.171783   90.345566   74.050194
H   13.303746   92.498100   17.745071
H   57.442741   60.763474   22.393749
H   81.912270   55.645382   73.909164
H   52.712391   95.674713   38.686775
H   25.154648   88.343140   35.254051
H   70.880142   21.799652   80.126076
H   49.604042   55.832344   90.628601
H   80.723038   13.535043   90.201668
H   71.405670   64.095467   40.953693
H   79.770378   88.831947   78.433662
H   52.686298   78.873619   43.460678
H   87.614059   41.923073   69.425552
H   99.936295   75.149414   61.354214
H   16.797791   78.057434   54.537052
H   91.288544   19.252697   72.931755
H   85.767006   68.682411   89.647652
H   50.296249   65.131889   51.597118
H   58.132278   40.217785   20.927359
H   14.369443   30.387117   14.702538
H   56.755001   91.115784   43.760960
H   36.760925   62.554432   73.654175
H   20.906691   72.228630   33.556240
H   43.042957   72.189049   51.148697
H   56.914806    1.138805   63.811531
H    1.690180   75.910095   62.977036
H   61.413513   55.534782   42.022408
H    0.633054   73.262482   79.406464
H    5.173916    2.755234   76.169006
H   85.577957   21.314583   40.114479
H   33.856140   98.994240   74.111229
H   23.434601   31.558435   97.831108
H   45.578068   42.310101   99.210243
H   46.101414   46.263531   89.609398
H   68.984703   41.416214   74.741753
H    5.165624   72.940575   96.015839
H   81.380005   92.402252   74.754807
H    1.296258   18.386906   61.264713
H   30.280876   80.141960   95.836433
H   41.733353   69.746887   15.872944
H   38.227554   49.185921   10.605164
H   20.212748   81.835068   77.204468
H   18.821915   15.559273   82.126953
H   26.835464   62.899845   50.643806
H    7.764625   42.936913   37.438892
H    0.875287   58.490711   23.399471
H   25.568798   61.074856   50.816566
H   10.268910   42.003101    6.130624
H   45.422218    3.358736   70.425430
H   11.057763   21.207653   55.610977
H   68.715019   42.885002   27.833145
H    7.291513   26.213436   21.400446
H   43.640404    2.621600   20.062401
H   92.800179   25.453745   35.592674
H   38.860336    4.761196    9.300898
H    5.865780   62.580235   15.246678
H   89.699028    7.637848   14.371902
H   99.693497   67.398300   46.610657
H   37.344357   50.512604   87.325562
H   88.013664   27.457237   66.812325
H    5.533875   61.200844   99.193573
H   48.603764   76.586021   52.161507
H   44.447819   26.813431   56.524422
H    4.453433   75.386368   29.776634
H   66.108765   94.627838   10.654389
H   81.345093    6.439932   37.878532
H   45.507545   77.135971   53.887432
H   95.867172   17.050182   29.696985
H   61.733078   28.642599   87.298279
H   24.729439    1.157303    2.566296
H   20.333879   46.425930   92.260216
H   65.873039   76.944572   66.401085
H   16.622459   40.083820    2.226159
