100
TIME:    7.013, STEP:  7013
H   43.061356   78.895210   92.725418
H    6.794922   84.888115   20.296947
H    0.317612   78.447472   41.020031
H   82.653717   43.715424   55.757519
H   32.356247   34.880215   75.554276
H   19.264988   93.610390   73.267685
H   85.418610   34.889149   38.878887
H   68.678322   95.316071   64.284508
H   81.234947   12.022107   58.644665
H   83.209602   17.081285   82.305061
H   47.922852   48.425755   64.220863
H   88.173767   75.216141   93.736504
H   96.553886   37.496563   28.174126
H    7.839674   83.459846   90.932030
H   65.785896   43.597099   13.648167
H   19.546196   98.346252   50.900879
H   60.163368   45.825596   11.809411
H   51.037304   53.586411   56.417725
H   54.492893   72.558563   32.833813
H    3.577072   56.881260   93.810295
H   48.115356   58.051819   66.895424
H   34.723480   53.393845   22.056519
H   92.108543   37.585945   31.701284
H   67.450020   20.724092   86.227325
H   78.759468   29.994072   88.332497
H   14.540386   19.357693   30.928068
H   57.340893   50.955994   39.117374
H   40.805092   83.782845   98.583817
H   63.661812   85.366402   25.663355
H   69.902771   17.268394   40.901604
H   92.060661   50.924408   54.532768
H    8.562386   58.746983   50.035515
H   64.344612   55.377724   29.583380
H   74.417595   31.023026   76.305008
H    6.421522   28.687508   51.729050
H   82.265938   34.717422   97.377846
H   52.436455   47.704712   61.062290
H   74.131035   30.611286   17.329865
H   49.052502   28.614172   64.700500
H    2.647601   55.650394   89.802780
H   55.962555   96.817711    7.568399
H    9.196547   69.104630   37.986179
H   71.641144    5.556833    8.031034
H   31.539890   30.355551   66.428703
H   48.329575   55.193188   56.231636
H   87.599907   96.679092   11.652323
H   96.523727    6.228334   92.782082
H   56.615658   67.601608    2.502598
H   70.024849   51.632587   64.724899
H   72.978760   37.475780   93.182838
H   43.020046   92.583313   27.353718
H   45.959812   12.984299   13.676772
H   54.344311   62.672485   95.564278
H   14.288712   92.778229   41.279984
H   82.409195   73.191353   59.999325
H    2.330442    5.156728   53.887726
H   40.845181   87.189110   22.982231
H    3.853580   14.596060   32.917709
H   43.376968   35.089817   73.096458
H   96.233894   66.831711   64.144188
H    2.085598   52.433556   67.606247
H   50.012856   62.666061   78.038681
H   50.173702   28.728859   52.567993
H   24.609432   79.965866   36.737194
H   10.679973    0.727128   48.659367
H   70.527802   93.636436   60.847137
H   24.902632   90.820190    5.649253
H   95.929726   18.618364    1.464553
H    6.427895   45.876877   20.389011
H   72.465294    0.874526   86.965759
H   99.337105   18.237335   78.024757
H   95.750969   18.756714   70.098900
H   49.730743   71.417740   81.935852
H   75.823555    5.567156   86.465302
H    0.295548   38.641445   33.031971
H   91.447929   57.041431   24.043844
H    3.712608   18.807316   15.117971
H   61.463818   92.157280    1.740205
H   97.813179   32.919331   95.923531
H   55.600723   26.988609   16.744835
H   48.106689    1.834788   99.140182
H   67.545601   89.951080    0.297244
H   61.464516   24.400183   97.825348
H   32.633137   12.276546   22.888226
H   10.854582   10.216826   67.920692
H   89.885605   66.655624   28.787354
H   35.537205   93.450233   57.950279
H   68.817345   43.886814   22.863976
H    1.221710    3.700076   70.833504
H   46.295635   20.741535   74.913406
H   11.023609   52.112602   81.563522
H   97.189880   22.923862   67.148415
H   35.000202   37.944508   61.330635
H   25.046234   38.643394   99.674881
H   35.342796   21.547546   77.237854
H   73.166626   18.796167    5.218290
H    5.943691   70.141434   33.865585
H   24.740610   33.462910   38.095749
H   74.629967   67.086037   57.625919
H   74.814796   98.670547   22.155567
