100
TIME:    2.576, STEP:  2576
H   43.117584   85.789055   96.787613
H   29.614174   44.411812   40.493244
H   24.033911   59.231674   93.098763
H   81.908981   26.519594   98.963074
H   72.098053   79.235275   95.859512
H   88.073494   98.417320   33.855579
H   17.962658   35.281662   91.899406
H   17.417778   11.459261   71.674904
H   90.304939   38.621567   37.936954
H    4.446268   53.370903    8.561770
H   60.641785   69.893509   91.616180
H   57.523819   52.812180    9.566824
H   79.402458    5.855751   69.094780
H   27.532677   97.135902   53.275700
H   11.833771   39.928253   26.945860
H   97.948334   86.422638   19.211096
H   16.960697   52.352081    7.891793
H   56.192734   69.429726   10.239105
H   85.387199   86.419418   99.077454
H   23.117340   51.108990   91.718727
H   11.413132   99.767670   87.325989
H    9.343979   47.503662   99.908112
H   51.350716   73.671776   58.648117
H   79.703186   67.576782   15.757071
H   37.450676   81.873047   55.567856
H   34.847340   50.851315   47.722862
H   39.947464   35.395580   51.084309
H   15.186796   76.678688   51.921947
H   67.183365   82.807014   35.402611
H   99.769386   27.084274   88.173515
H   17.436331   53.049854    5.574027
H   28.407265   81.339256   60.790840
H   51.808216   80.010078   29.863379
H   86.942955   37.647659   63.228165
H   16.738968   64.194275   81.588676
H   96.527176   86.842949   11.784715
H   26.871258   10.196802   11.443955
H   57.518646   11.805935    4.223491
H   36.339355   25.289385   94.679031
H   20.563368   71.027443   40.708591
H   59.198620   44.571476    3.034633
H    0.104943   27.470078   23.823679
H   33.429432   78.947449   87.540611
H   14.864252   55.945885   32.601898
H   33.206959   30.255322   76.546120
H   44.853634   12.050037   93.629372
H   61.857578   64.929352   50.185768
H   56.376987   21.905657   27.966179
H   40.328064   19.105480   41.716728
H   79.910973   69.954781    3.496742
H   43.348087   20.947462   80.577774
H   30.320768   24.705261    4.951296
H   62.316193   36.945251   53.260422
H   17.040249   65.181068   45.487701
H   35.685120   84.331207   22.263990
H   96.789383    9.824697    4.933685
H   59.557613   15.217881    0.986383
H   34.242279   33.616531   47.204422
H   93.441048   47.611401   13.721926
H   89.029617   25.787771   90.343025
H   22.196802   58.774364   13.551198
H    7.486523    3.965841   78.799316
H   48.961758   31.489878   56.834641
H   19.928259   55.807297   57.205006
H   34.567547   55.103947   35.458870
H   43.097389   14.212288   98.498573
H   80.890999   37.421757   91.430984
H    2.423719   64.861389   89.350296
H   85.289665   64.691399   98.669319
H   82.573547   77.709053   96.308807
H   40.233528   20.128614   31.248924
H   61.563156   66.032654   45.224701
H   39.032074   90.887566   95.696281
H   73.501640   86.365250   50.109215
H   86.370750   32.309872   96.675766
H   86.555992   72.671135   22.597813
H    0.838633    3.275926   36.607761
H   53.005489   82.282768   56.704174
H   85.041199   45.952206   46.420441
H   73.193428   68.660980   98.996597
H   61.292507   55.931561   33.949696
H   34.603989   61.050797   71.373878
H   80.784683   50.254150   75.251190
H   27.375751   32.593231   28.140656
H   26.899960   87.753876   98.038231
H   92.002991    3.674347   20.668636
H   39.199944   16.056747   46.376984
H   97.423676   99.053802   68.956062
H    9.141556   50.744347    7.124885
H   38.585468    3.289993   16.304096
H   29.443176   12.528810   87.862137
H   68.888992   89.238579   82.606987
H   50.564884    4.820040   18.201569
H   96.207436   69.487419    0.505622
H   12.052822   18.986885   75.280754
H    6.688659   94.008430   34.395355
H   58.131485   15.511670   89.041252
H   16.323156   38.170776   14.818096
H   85.998863   47.954418   29.270943
H   99.219589   12.536596   49.580231
