100
TIME:    2.480, STEP:  2480
H   49.609772   94.592766   96.875504
H   32.284584   39.206490   34.437580
H   22.383764   52.324936   94.225227
H   81.892868   30.475039    4.225196
H   72.957916   71.540451   98.462540
H   89.561775   98.521324   24.348307
H   22.994030   28.798996   84.392082
H   24.963188    3.154196   80.488869
H   92.664803   47.851547   43.980167
H    7.069437   51.992485    4.802327
H   69.571472   66.030716    0.863704
H   61.188126   48.000168   16.399954
H   85.509392   11.664040   78.636772
H   32.286095   97.431801   45.969791
H   10.665924   48.503448   31.560484
H    1.808338   94.819122   27.180212
H   24.679138   46.003365   99.151581
H   54.141220   74.098183   13.567596
H   83.891594   82.392563   94.019348
H   25.703522   53.147320   85.182594
H   17.109909    9.324970   89.931946
H    0.140366   47.376221    8.083328
H   52.632454   74.452538   61.394699
H   88.622620   66.425415   22.887192
H   40.884270   89.487305   54.859604
H   35.287525   53.711422   56.720665
H   48.226028   39.386547   49.179279
H   23.286997   72.197731   48.748363
H   65.095963   74.097054   39.940697
H   96.088234   29.460251   80.541679
H   13.659413   44.441036   13.170078
H   22.345741   83.992088   69.678047
H   45.045765   87.034004   21.214941
H   82.886803   46.445511   67.272598
H   19.125565   71.451111   75.742485
H   88.180496   79.301933   12.114671
H   17.663616   13.712793    3.879685
H   61.486176   13.563015   97.448982
H   40.391846   27.380816    3.982121
H   29.605482   80.014259   33.155125
H   65.759117   41.277775    0.772423
H    8.732941   23.161240   19.313791
H   32.602528   78.371765   80.606041
H   20.994257   54.336754   23.215570
H   41.533863   34.042675   68.331276
H   46.092159   10.218983   93.239723
H   61.106846   59.708649   49.263649
H   56.371861   20.917253   22.026237
H   37.522156   27.055920   45.546562
H   77.898277   68.494331   10.210911
H   43.355412   30.215895   79.565567
H   25.655607   33.613407   11.253742
H   60.324738   36.388611   58.836349
H   19.263149   66.746986   41.251373
H   43.327942   75.915680   21.449537
H   96.669266    9.925589    8.201752
H   53.471920   17.987953   91.855995
H   41.390717   42.682449   49.677078
H   85.869270   43.555248   21.091921
H   95.365067   18.408621   93.073494
H   16.140772   63.238476   21.035877
H   10.893383    4.859579   83.142578
H   42.449795   38.036293   63.420578
H   13.336096   55.285080   59.811695
H   30.756874   62.771671   26.518419
H   48.994850   18.984749   92.822304
H   88.593147   34.103153   86.796219
H    9.055250   59.371155   84.760941
H   80.505486   71.589348    4.690278
H   80.628235   72.880928   96.510956
H   43.281868   26.660719   32.400784
H   69.478943   69.218689   38.195648
H   45.291351   95.636589   98.157219
H   75.613945   92.439957   55.814781
H   81.741844   32.172909   89.398422
H   84.286949   66.518791   29.057407
H   92.122772   11.596609   34.910007
H   48.495235   88.559624   51.402172
H   80.437195   46.234188   45.348907
H   77.901436   73.889008    7.267008
H   59.413845   54.938396   28.212143
H   27.400620   60.423843   79.401222
H   74.711441   48.651611   66.107635
H   20.771503   24.378389   36.909210
H   31.574642   93.758270    7.344256
H   94.211975    0.148065   14.002078
H   32.788322   23.036728   41.799347
H   95.878265    6.739693   69.955086
H    7.149129   56.089561    7.910316
H   47.073505    7.239944   12.872500
H   25.514465    7.345105   85.834793
H   61.785740   82.019829   80.777397
H   44.405216    1.943604   10.774574
H   86.929115   63.664623   94.032509
H   13.712856   27.586250   73.074699
H   98.759384   97.799446   39.353851
H   65.751602   10.002576   94.562248
H   15.970847   37.353394   16.354210
H   90.572105   47.540600   37.312202
H   93.257675   15.002478   58.826324
