100
TIME:    8.740, STEP:  8740
H   26.271313   20.521681   91.144302
H   59.098709   78.472397   29.189552
H   30.003481    2.695016   20.745880
H   82.943588   72.562248   61.095001
H   16.881227   73.306793   28.727360
H   92.483887   91.739403   44.297615
H   94.907158   51.505508   73.932549
H   32.939529   44.722507    5.715333
H   38.781990   45.977356   49.935993
H   36.039650   41.878452   49.927071
H   87.281525   17.915001   97.868706
H   22.259247   61.781628   70.806374
H   86.428787   32.966606   56.549477
H   22.328741   78.136757   22.357708
H   86.762032   89.332954   30.594200
H   50.107147   47.296654    7.544261
H   21.288338   60.052540   69.025032
H   87.961746   69.550591   96.555740
H   81.393555   45.008022   23.819172
H   57.042545   20.210432   11.392389
H   45.632729   86.122589   20.026022
H    0.292656   55.686462   74.986557
H   69.050606   23.544336   82.288254
H    6.985510   41.384003   57.966618
H   16.992149   93.034042    1.086305
H    6.396889   68.448288   68.410004
H    8.418592   79.166336   73.384445
H   95.086243   64.393356   55.672173
H    1.213384   42.052914   44.027000
H   36.122734   74.524338   78.193695
H   60.031559    5.788901   17.898094
H   17.606068   11.036472   90.158516
H   85.990738   29.021954   85.165176
H   47.388260   72.753876    3.549814
H   63.441261   97.929390   56.802441
H   32.390339   69.986572   91.949348
H   18.079060   84.456795   97.143272
H    2.752864   99.004128   39.198364
H   76.154778   90.988609   97.341843
H   39.983131   93.973518   25.679224
H   37.933945   56.070915   48.255093
H   63.654297   75.877075   26.153770
H   86.503632   15.916435   32.772335
H   21.266041   59.348022   35.285145
H   98.525940   87.062737    4.016265
H   65.306175   29.613403   18.668524
H   10.022511    0.148392    9.362991
H   56.721066   85.389160    9.359003
H   20.510040    8.604111   95.831055
H    9.236490   63.761829   72.432732
H   42.901463   25.853157   45.561218
H   29.893461   52.732349    0.309224
H   90.160133   72.686218   95.266739
H   74.291199   64.608017   17.488262
H   44.903389   24.536413   74.680939
H    4.481419    3.340092   95.096558
H   50.329056   37.357613   87.234108
H   75.257507   51.502235   88.432030
H   79.582451    8.064431   40.515976
H   82.268745   99.572647   15.024193
H   11.026203   72.119507   32.956814
H   88.718224   46.591385   99.896477
H   67.420471   10.880830   34.142426
H   43.200207   89.373505   89.847641
H   79.229538   62.795811    9.486765
H   64.436897    7.782168   62.961369
H   86.341629   50.525372   89.028793
H   76.634109   17.387341   84.025146
H   92.501770   21.785667   12.074369
H    7.529839   87.632095   83.306213
H   44.494053    0.729681   57.312141
H   53.548851   61.397850   96.684860
H   37.127274   85.994621   37.656643
H   37.806805   96.265663   83.852821
H   83.486084   41.184406   63.974323
H   32.276436   67.726189    7.838793
H   60.561356   69.332031   45.748459
H   42.596607   79.238457   97.125183
H   80.627632   27.846584   15.194620
H   70.907616   32.910759   67.962425
H   81.915352   19.701670    2.360867
H   97.139206    1.151833   55.814842
H   70.699638   53.281895   62.297466
H   51.446571   60.060036   65.152336
H   26.765579    2.182023    0.508773
H   50.142300   30.087845   48.715393
H   50.879688   67.882957   40.300179
H   96.592278    5.690504    4.957651
H   37.065678    7.543432   56.708870
H   93.605148   49.690231   36.650917
H   81.699486   45.364529   18.034935
H   24.970392   52.810760    0.061952
H   45.704288   89.759026   94.882202
H   91.952682   43.418568   16.123163
H    5.480349   66.854599   16.922373
H   15.809798   50.598572   16.016823
H   68.862267   69.249443   34.543571
H   21.407091   18.915920    3.424356
H   92.359734   74.543633   12.970303
H   82.086105   54.349476   55.788914
