100
TIME:    0.714, STEP:   714
H   69.037514   56.543861   98.492325
H   81.409004   43.457432   23.039061
H   92.031952   25.271763   14.956337
H   81.596451    3.232435    1.025726
H   88.775818   29.987770   46.345329
H   16.944519    0.436551   49.455784
H   15.550177    9.549551   46.288502
H   63.767303   50.371365   42.637299
H   36.076515   17.645340   55.144287
H   55.328072   26.636765   35.649895
H   33.840485   94.972031   70.972649
H   28.588863   59.479805   42.105339
H   97.845398   18.509598   54.162552
H   19.728565    2.875841   11.575153
H   89.186287    6.247113   16.450632
H   72.815643   49.286076   73.771957
H   66.662010   29.214951   38.362770
H   16.401917   59.978851   74.793259
H   56.382416    8.305072    0.980310
H   73.322060   90.562073   64.898552
H   21.906769   85.136383   37.864532
H   30.810902   45.042336   58.460690
H   76.211098   88.815300   11.921164
H   52.703201   45.245060   54.047791
H    4.047807   29.548939   41.830719
H   43.385105    6.335240   22.250280
H    0.509333   12.796372   14.134680
H   72.295036   89.766296   90.374588
H   26.696457   13.871814   23.420830
H   28.370733   73.168320   40.149166
H   44.188480   86.070778   52.911797
H   10.839518   32.784920   33.165504
H   20.650658   16.242651   62.119713
H    8.270152    8.288857   41.671013
H   63.024239    4.947185   68.204926
H   34.634979   40.573925   18.187559
H   48.280567   78.387550   64.725716
H   34.479553   45.885967   72.825600
H   18.621075   65.266197   73.693863
H   95.942848   45.341198   94.209953
H   86.447678   80.679756   59.164494
H   67.450920   43.903206   36.344959
H   17.390936   67.781586   53.045387
H   33.765091   24.737104   50.543709
H   94.721458    3.721374   17.206400
H   68.832512   76.626518   86.118248
H   43.619251   64.258804   33.724312
H   56.277546    2.734692   12.756164
H   85.901237   73.315109   15.991857
H   40.864651   41.616932   33.726585
H   43.490147    0.711051   60.945179
H   39.831352   97.484772   27.189034
H   23.690264   26.148743   61.403381
H   60.155254   95.553352   63.323322
H   83.918320   21.097525    6.464849
H   94.459610   11.781565   68.320557
H   41.515709   68.944771   23.894905
H   72.892761    9.458672   95.163651
H   46.587967   68.936737   56.670155
H   11.902774   82.668304   43.301720
H    4.739973   45.366081   58.725586
H   73.569885   21.299545   63.050621
H   22.662766   58.464211   84.574806
H   92.068245   45.678467    7.753805
H   60.663933    3.817606   62.055573
H   57.483162    6.778028   88.403114
H   30.283510   73.045868    1.533535
H   31.045052   58.371689    0.335929
H   92.487206   98.482849   15.450850
H   44.849800   84.055809    0.229330
H   99.358620   46.822437   53.584110
H   15.094791   27.829384    8.896910
H   60.437759   82.988960   43.441074
H   14.475383    4.195725   60.773460
H   96.597336   29.659636   55.524097
H   42.539089   53.334206   47.885998
H   31.781200   64.660759    3.668115
H   65.525345    4.033568   53.872852
H   95.775383   51.410984   25.649811
H   64.509628   70.069679   59.409424
H   24.854290   36.668316   22.662579
H   94.894844   48.890518   27.073940
H   62.971920   19.174501   97.904938
H   99.285614   73.259499   98.214088
H   17.563490    4.221887   78.538216
H   34.859310   35.280605   91.365471
H   14.841177   51.439308   57.589382
H   67.449158   48.129341   88.318459
H   70.500191   54.417564   22.358780
H    3.209004   79.905533   49.737530
H   53.242374   11.986147   48.540112
H   31.115725   49.205467   47.127327
H   31.094925   49.023819   74.151726
H   16.238123   56.543182   74.959160
H   44.247868   85.773743   32.492485
H   52.895065   67.536003   30.570076
H    5.928707    8.655377   96.126007
H    9.486720   22.316956   44.611893
H   74.698784   39.928066   85.243172
H   83.583267   60.365337   28.917830
