100
TIME:    9.183, STEP:  9183
H   96.313629   79.896828   90.738724
H   46.863754    2.476191   57.123608
H   37.618221   34.565193   15.545950
H   83.017944   54.311211   36.810982
H   12.911627    8.815098   16.717163
H   85.616089   91.259468   88.169220
H   71.687782   81.418343    8.575741
H   98.120605   83.047989   65.042198
H   27.892204    3.383913   22.049688
H   23.938761   48.239277   67.272316
H   46.074738   35.738846   55.195076
H    5.349998   83.987053   39.272636
H   58.180237    6.154169   12.526550
H    0.394792   76.771309   56.071430
H   92.142708   49.762001    9.291183
H   32.295486    8.550214   70.771545
H   85.664711   89.355141    9.353071
H   97.438766   47.994087   81.197830
H   88.295151   63.593662   47.156841
H   45.108395   10.802698   41.553917
H   19.344475   42.020988    8.001989
H   42.763500   56.274551   37.260986
H   63.135918   19.943136   69.613922
H   65.825729   46.683563   25.064409
H    1.148475   57.903587    4.356441
H    4.307314   55.388657   26.720472
H   70.219460   60.752468   82.171982
H   57.705986   85.071106   70.315483
H   10.846484   82.245750   23.086346
H   53.109718   63.560196   13.410873
H   77.465446   45.512867   82.849365
H   45.577473   98.797318   49.147758
H   17.194679   96.610886   25.074118
H   66.105713   32.155457   84.886711
H   52.416283   64.388039   83.754044
H   70.900024    4.684071   90.556862
H   60.567352   68.233650   32.049702
H   84.441353   90.899315   70.459038
H   57.456417   81.335838   54.411346
H   98.257812   52.502167   60.535019
H    7.658856   71.271591   58.691982
H   26.320786   77.614304   48.768597
H   90.316071   18.574638   64.769188
H   92.981239   66.785744   78.598701
H   60.097710   69.589058   41.926701
H   59.590126   38.062481   20.468279
H   13.485984   24.241484   13.617342
H   56.748104   89.951920   36.769154
H   33.458138   71.913490   78.161346
H   18.534994   70.507835   41.457584
H   42.871044   83.083870   50.232132
H   51.423092   11.624416   71.229225
H   99.346489   75.254883   69.539536
H   64.030060   57.378860   37.035896
H    9.630497   63.360100   78.446060
H    5.033175    2.874099   80.015793
H   78.413727   24.575127   29.367270
H   42.270447    9.665899   77.021751
H   14.522419   26.783575    6.506098
H   53.034557   33.624226    2.424217
H   38.972530   51.518162   98.418556
H   72.995293   42.468002   79.854134
H   97.494125   80.651390    3.764587
H   73.620911   91.786697   77.822235
H   96.811371   27.412457   50.741657
H   37.222572   85.759544   89.154991
H   50.799423   65.839752   10.417007
H   46.033203   42.723457    5.203110
H   14.580561   89.954529   84.291107
H   16.526947    9.883711   82.366623
H   30.424046   70.588371   51.999062
H   17.069742   46.688866   29.156342
H    8.243090   64.079857   26.297062
H   28.056019   68.226662   57.530769
H    4.825905   41.836712   97.562988
H   42.750504   96.116692   78.029343
H    0.794777   30.988422   53.606544
H   63.406170   50.273384   21.592247
H    1.872950   26.545353   20.139162
H   49.182121    8.777458   29.797478
H   90.587975   24.284708   28.838814
H   30.381287    4.027638   18.754492
H   98.718361   60.690464    4.484849
H   81.924416   97.968117   24.692394
H    5.195557   74.467697   57.564774
H   39.945377   46.361488   79.478531
H   80.466652   35.673256   61.424065
H    3.716640   70.242775    0.364603
H   46.258793   82.877785   53.085701
H   54.438946   31.462852   52.485382
H   99.828850   69.284271   27.390282
H   57.747906   86.129044    8.501672
H   74.101547    3.049223   29.140070
H   34.766708   70.294907   45.993130
H   97.820740   27.172352   27.100706
H   52.399750   33.104614   93.134842
H   33.698601   94.672462    9.065184
H   20.551996   40.835072   94.529320
H   71.256126   76.456612   75.865456
H    9.603731   42.983135   13.111961
