100
TIME:    6.543, STEP:  6543
H   74.846024   21.996046   93.155716
H   19.773823   59.421009   90.662453
H   92.235306   44.633232   46.538601
H   82.574829   63.078827   81.519165
H   36.565994   97.207733   88.298264
H   26.554951   94.119576   26.721130
H   10.052211    3.151390    2.124216
H    5.619400   54.653751    7.436675
H   92.788445   57.210632   88.228294
H   96.046822   10.332027   63.902653
H   91.641113   29.514166    9.494980
H    6.111206   51.657337   27.190788
H   26.544388   65.922401   74.876152
H   31.110138   84.908516   55.166218
H   60.077278   85.579826   36.249561
H   38.444626   39.454384   89.914551
H   97.957863   14.740125   69.023445
H   40.986263   76.456741   72.709999
H   47.174244   52.841721    8.073756
H   16.238586   66.861610   61.810478
H   76.005829    4.840343   79.653755
H   89.664124   52.769913   62.081390
H   98.383720   41.408424   45.148132
H   11.118561   15.101534   21.133055
H   95.569771   67.268311   84.861427
H   16.719637   33.232063   75.142265
H   97.868370   70.493912   29.790670
H   80.462112   61.844826   83.050064
H   53.442238   42.723888   47.880554
H   51.880466   28.900780    3.538722
H   73.565025    8.779485   91.717674
H   78.886322   71.733353   93.545799
H   31.236855   89.765694   87.242065
H   54.559349   74.095840   96.105881
H   18.119125   64.273140   23.132174
H   41.409161   97.904198   98.855202
H    7.358196   64.916626   24.027990
H   93.558983   39.213657   84.162834
H   68.891937   38.854668   10.247187
H   46.915676   99.649033   52.824764
H   88.084290   80.688713   96.495949
H   48.805618   67.261520   13.992143
H   67.596344    2.737386   74.081169
H   61.549580   22.466757   20.475840
H   89.098915   73.737320   16.012415
H   93.667107   87.714554    9.742876
H   92.851852   80.668289   88.271126
H   56.588848   62.760757   73.421692
H   56.286018   90.559059   83.471542
H   63.110920   30.321657   26.045004
H   43.052319   37.959427   22.399914
H   23.113884   56.598572   44.529060
H   44.594479   59.947266   22.861032
H   25.171661    0.444869   20.540619
H   19.831623   32.001892   56.001141
H    1.745058    5.651122   69.887634
H   11.050488    0.750701   78.281151
H   38.850006   58.981987   45.023422
H    6.310161   15.228021    9.177084
H   27.248512   30.704899   77.512108
H   72.438011   74.290787    4.252958
H   66.694069   67.040756   99.302567
H   18.264303   60.800575   84.797302
H   92.335617   77.405594   49.499111
H   92.025345   38.265621    4.889793
H   99.400787   17.000999   33.057068
H   62.611404   74.569275   82.957840
H   28.396141   91.737953   78.995834
H   83.004524   79.648087   49.868000
H   62.941765   77.236748   87.955444
H   14.262323   50.215637   83.661659
H   34.467045   34.375687   35.669479
H   80.375122   94.663818   93.984192
H   86.172218   35.313053   14.390833
H   77.634514   37.969578   97.401382
H   80.339073   26.917297   55.667603
H   61.026943   59.488392    6.782678
H   39.382366   22.889143   75.785881
H   75.272743   34.299870   90.681068
H   78.650345   52.591682   57.235863
H   38.909073   96.972000   71.048904
H   32.278748   86.903137   39.617085
H   31.734520   16.540075   53.066322
H    0.298087   72.057762   65.814171
H   33.739967   39.617104   13.481815
H    0.700632   49.390472   96.148849
H    4.146920   27.623390   35.538933
H   61.258446   81.496765   27.737099
H   91.468124   29.867983   74.677498
H   87.849594   40.079838   58.111534
H   91.789146   26.735416   71.637985
H   62.414639   87.575745   58.193375
H    4.872465   23.841496   24.984812
H   79.622353   10.129176   67.983444
H   43.468254   63.648605   66.437378
H   34.346588   37.355072   29.494659
H   43.249504   43.168930   60.895462
H   25.647821   10.207219   47.530029
H   97.019798   65.056465   96.991585
H   45.621342   10.731346   67.433388
