100
TIME:    6.342, STEP:  6342
H   88.439041   40.428398   93.339737
H   25.324356   48.528500   77.989540
H   88.778778   30.172344   48.898670
H   82.541092   71.359772   92.535889
H   38.366333   81.096695   93.748352
H   29.672573   94.337334    6.815425
H   20.586430   89.579536   86.405739
H   21.417603   37.265301   25.892269
H   97.729408   76.535904    0.879819
H    1.536986    7.445618   56.032688
H   10.337631   21.426443   28.856289
H   13.783348   41.582188   41.498161
H   39.370651   78.076988   94.848564
H   41.062538   85.528053   39.869473
H   57.635933    3.534121   45.915264
H   46.526215   57.034523    6.599344
H   14.121301    1.445775   50.725624
H   36.687840   86.237457   79.678261
H   44.044353   44.408958   97.484406
H   21.653404   71.130898   48.125450
H   87.933456   24.851063   85.109978
H   70.394058   52.503082   79.198410
H    1.067465   43.043144   50.898788
H   29.794392   12.696993   36.061199
H    2.758687   83.207596   83.376991
H   17.635908   39.174408   94.044289
H   15.200771   78.848465   25.802015
H   97.422714   52.462822   76.406906
H   49.071739   24.487724   57.382172
H   44.173054   33.875481   87.559708
H   65.655190   90.755119    7.620084
H   66.195007   77.287720   12.153313
H   17.078739    4.471857   69.134399
H   46.066780   92.516342    4.573567
H   23.121429   79.491676   10.902604
H   23.936720   82.161201   99.487007
H   88.079292   72.277466    8.190106
H    1.867282   42.892544   69.977882
H   77.375305   43.234367   29.725042
H   65.846985   18.466255   37.009693
H    1.821378   73.790993   91.760475
H   65.744751   66.473297    3.730749
H   65.866547    1.531587   59.562378
H   74.384750   19.093039    0.823406
H    6.534611   81.668625   98.811874
H   96.261803   83.880783    8.926283
H   91.281540   69.737442   86.341972
H   56.578114   60.690521   60.984943
H   50.411148    7.206213   91.488724
H   58.892239   27.261541   40.099281
H   43.066120   57.364441   20.281372
H   13.343241   75.249710   57.723366
H   40.424870   58.781799   34.535030
H   29.825859    3.724664   11.671573
H   35.835899   14.387214   54.291279
H    1.494713    5.862555   76.730148
H   98.308037    6.550759   59.164436
H   53.817047   77.963753   50.200546
H   90.457214    6.734302   24.607414
H   40.511826   15.254804   83.229027
H   59.758961   83.639053   19.924168
H   73.827950   68.911636    8.397470
H    4.618332   74.516273   98.580475
H   78.534042   76.310669   54.956867
H   84.048035   54.319920   86.171593
H   11.747894   26.993340   21.172377
H   78.737778   67.619415   73.253799
H   42.280525   80.242775   69.386871
H   72.987648   94.090668   62.474972
H   58.870300   67.127861   88.378693
H   20.645447   63.891464   86.072334
H   51.039669   41.046448   20.952976
H   93.480484    4.606369   99.136780
H   90.597923   48.033504   26.333029
H   67.942741   37.682812   82.164444
H   75.588264   14.035061   69.192200
H   42.772060   76.884911    3.217846
H   29.939022   36.032310   64.686348
H   65.633110   34.890270   88.439079
H   88.507736   63.540932   74.552238
H   34.975624   94.892563   59.035404
H   17.195940   85.599655   56.432003
H   19.020203   13.178946   33.923538
H   86.468925   54.857933   84.173332
H   43.526817   52.190338   32.966522
H    5.327034   42.006630   82.190857
H   90.722557   42.237724   25.954504
H   58.025810   97.580200   29.821136
H   87.296982   41.059380   76.321419
H    5.620234   48.350048   50.927048
H   83.563408   15.882011   67.393234
H   47.542675   72.458420   54.364204
H   91.988007   17.810207    9.441173
H   60.196171   97.935005   54.430298
H   46.943184   81.652023   61.818455
H   17.744827   45.292511   39.876511
H   59.204124   31.633905   72.455048
H   26.035799    0.261772   51.564690
H    6.594892   64.188499   13.827682
H   33.137051   15.889301   86.795464
