100
TIME:    8.672, STEP:  8672
H   30.869686   26.757383   91.206558
H   60.976761   74.787888   24.901939
H   28.834627   97.802872   21.544052
H   82.932175   75.363762   64.822456
H   17.490557   67.856293   30.570911
H   93.538086   91.813072   37.563087
H   98.471306   46.913620   68.614861
H   38.284195   38.839848   11.958947
H   40.453560   52.515259   54.216602
H   37.896950   40.902073   47.264595
H   93.606720   15.179076    4.418921
H   24.854797   58.373119   75.646767
H   90.764908   37.082237   63.306831
H   25.695486   78.346352   17.182690
H   85.936104   95.407051   33.864189
H   52.841217   53.244164   13.188927
H   26.756477   55.555073   62.834724
H   86.507309   72.859489   98.913162
H   80.334167   42.155148   20.236866
H   58.874424   21.654509    6.762646
H   49.667946   92.891876   21.871649
H   93.773430   55.596191   80.777390
H   69.958504   24.097116   84.233749
H   13.303701   40.570526   63.017124
H   19.424019   98.426437    0.584351
H    6.717636   70.452927   74.808868
H   14.282316   81.992752   72.035568
H    0.824098   61.219349   53.424217
H   99.734734   35.883358   47.241478
H   33.515251   76.207321   72.787811
H   57.355076   99.691261   23.278038
H   13.312571   12.915173   96.453621
H   81.201187   33.997078   79.039200
H   44.515152   78.985687    6.414421
H   65.133583    3.077930   52.665020
H   26.479387   64.660583   92.163094
H   11.556981   86.947029   91.785118
H    5.563341    0.248291   34.399994
H   79.024773   92.470299    3.931488
H   46.387703    0.339199   20.329111
H   42.581345   53.737877   46.653042
H   69.384949   75.610413   22.682228
H   85.918427   15.508530   27.860867
H   25.607868   58.206146   28.636738
H    4.424440   89.744926   98.197197
H   66.183983   28.316666   18.392263
H    9.490872   96.450386    8.709953
H   56.716915   84.688782    5.151674
H   18.522522   14.235672   98.543335
H    7.809145   62.726826   77.187004
H   42.906132   32.418282   44.844238
H   26.588453   59.042500    4.773141
H   88.750038   72.291931   99.215836
H   75.866272   65.717209   14.487788
H   50.317574   18.577230   74.102997
H    4.396725    3.411621   97.411438
H   46.018356   39.319710   80.766762
H   80.320984   57.923927   90.183495
H   74.219109    5.191001   45.736649
H   86.756355   94.346268   16.958275
H    6.736644   75.282104   38.258419
H   91.131676   47.224319    2.973308
H   62.804066   15.521096   38.805389
H   38.530499   89.003082   91.693527
H   76.530746   68.226715    3.154127
H   68.614265   11.162532   58.940678
H   91.797318   48.174694   85.745834
H   81.331314   13.498166   80.774353
H   89.112976   26.671715   16.339294
H    6.148731   84.216324   83.450439
H   46.653812    5.356672   58.127693
H   59.148247   63.655663   91.700241
H   41.560928   89.358513   39.400326
H   39.303539    0.569580   87.893227
H   80.210388   41.084278   58.818501
H   30.668680   63.368202   12.414212
H   54.385574   75.217285   44.542252
H   39.402363   83.684563   93.369080
H   77.366463   28.046322   14.435747
H   74.242455   36.614983   73.820702
H   80.584114   18.998178   98.296539
H   92.036301    0.710400   61.503471
H   66.398796   52.144688   55.821301
H   46.768562   54.241188   71.363396
H   30.076553    6.435770    7.100498
H   51.707516   27.590088   43.993286
H   46.338123   72.827110   37.057686
H   95.498650   11.131796    5.662698
H   35.654545   11.329496   57.265022
H   99.616989   52.488113   34.220345
H   78.916649   41.692989   16.598900
H   19.939081   47.696442   98.766014
H   41.345341   87.719109   89.623657
H   85.380539   39.293079   11.538153
H    6.656141   72.945297   15.359957
H   10.193282   53.283875   19.529091
H   74.259850   65.347038   38.454277
H   21.538347   15.551251    4.789576
H   95.599113   74.249992   18.666195
H   77.862045   56.094196   62.339787
