100
TIME:    3.617, STEP:  3617
H   72.719391   90.324066   95.834549
H    0.656102    0.851908    6.159185
H   41.927689   34.124947   80.883659
H   82.083710   83.629265   41.903233
H   62.773911   62.676006   67.632935
H   71.934944   97.289528   36.949570
H   63.401585    5.573917   73.307045
H   35.597229    1.519166   76.093483
H   64.715172   38.533661   72.410667
H   75.997932   68.318123   49.329079
H   63.810501   11.780264   91.341789
H   17.788994    4.992250   35.466530
H   13.185449   42.873947   65.627739
H   75.988411   93.927254   32.495502
H   24.497608   46.942093   76.907356
H   56.092941   95.372917   32.799171
H   33.249611   21.207607    2.658132
H   78.433678   18.806145   74.148621
H    1.604699   30.090929   53.918591
H   95.072044   29.005308   62.594810
H   49.638809   96.132996   59.069031
H    9.145660   48.885605   11.257278
H   37.451866   65.205391   28.864449
H   82.982994   80.061920   38.443775
H    0.220232   99.312225   63.252174
H   30.072474   19.835466   50.148979
H   50.181362   92.122330   71.738991
H   27.350203   25.269028   86.330345
H   89.818634   77.254623   86.195198
H   39.684448    1.318653   70.929779
H   58.408726   46.398617   23.213417
H   94.136909   52.575768   64.420250
H   25.133715    3.845798   23.644880
H   30.928936   42.246223   19.372482
H   90.861694   85.502556   44.977692
H   87.043068   68.620575    8.201592
H   26.716702   72.073227   93.470879
H   14.495681   92.756004   77.682640
H   92.397125    2.610434   93.798409
H   22.512802   73.572418   22.611917
H   88.055817   80.291168   27.560652
H    6.545814   74.192307   72.731079
H   42.396175   85.190018   62.732151
H   48.388809   73.390625   34.385246
H   42.907520   89.183380   65.627258
H   31.423374   31.905537   97.854622
H   69.992477   21.542747   60.184998
H   56.432583   32.623886   92.377419
H   70.756393   32.889519    0.189295
H    1.736758   85.791527   30.686649
H   43.268665   20.445602   91.553894
H   80.912445   28.108337   36.612896
H   83.903709   42.981323   92.799477
H   92.933342   48.193253   91.425385
H   52.802536   75.570496   31.110716
H   98.091904    8.729650   69.495590
H   25.554155   85.179543   99.994133
H   56.726799   35.306931   20.389835
H   75.541344   91.595306   33.803829
H   20.334641    5.801856   60.734505
H   87.863503   10.365691   32.386013
H   70.540215   94.275558   31.696625
H   19.618017   60.465630   85.441917
H   91.412285   61.470085   28.938717
H   75.888527   71.960976   32.405003
H   79.147194   62.461037   60.049072
H   97.369370   73.409943   41.691631
H   30.514977   24.397642   39.116116
H   37.173309   89.891785   33.380711
H    3.667258   30.066774   94.116760
H    7.175640   49.299370   18.759815
H   75.728378   31.484085   21.441143
H   71.156250   39.394138   69.010490
H   50.589092   20.488091   88.244621
H   36.561726   33.795063   75.590981
H   11.163875   39.388512   52.550556
H   95.354866   13.048733   55.017780
H    1.913568   14.213346   14.192394
H   34.960823   42.894459   58.039879
H   22.140968   11.963673    9.313427
H   81.657364   66.701187   96.168884
H   12.711562   67.849319   84.325928
H   46.646564   67.631683   74.401306
H   98.994446   21.673557   33.059746
H   76.211243   22.638676   97.124939
H   68.049316   41.913101   92.958542
H    8.725988   40.367561   96.015732
H   14.178358   15.708366   58.127213
H   30.747681   92.783852   98.608406
H   46.547474   60.464386   53.514977
H   72.045135   68.737801    9.846231
H   45.915939   67.523003    2.446278
H   17.310925   36.045250   98.712608
H   96.824013   32.630089   70.693275
H   94.053551   25.740665   99.202660
H   92.670929   52.899605   80.626076
H   75.502014   75.252876   29.172762
H   20.143354   47.034271   98.160637
H   36.407768   52.441761   42.075615
H   63.875164   85.815285   49.303154
