100
TIME:    7.728, STEP:  7728
H   94.709465   13.326627   92.070816
H   87.048538   23.632549   65.381790
H   12.608187   29.886723   32.624760
H   82.773727   14.256687   16.564297
H   25.949480   92.190620   56.167145
H    8.175900   92.835777   44.075989
H   47.944981   83.169342   94.792816
H   12.480736   57.171215   98.633842
H   63.658882   43.277756   13.636433
H   63.680641   27.347628   10.301056
H   81.415298   77.195511   95.349640
H   60.887146   11.055193   42.841194
H   50.960854   94.220688   57.118748
H   72.436943   81.256020   45.344891
H   74.470284   79.729782   79.261749
H   90.796539   35.809937   91.549103
H    2.667180   93.118500   76.898682
H   66.326889   18.794312   31.635540
H   65.627380    2.550658   70.501648
H   84.310959   41.699947   42.490761
H    5.686234   86.870361   47.491116
H    3.271225   54.343018   61.167694
H   82.562263   31.771006   11.242560
H    1.014906   29.277559   33.125015
H   53.186348   73.291733   93.612953
H   11.169186   98.282028   63.644295
H   95.684616   21.232595   53.305874
H   80.475212   17.156607   22.218435
H   79.208611   50.236439   91.865990
H   97.319687   99.571091   97.742882
H   20.200335   15.040674   97.964317
H   53.707882   38.994366   83.844414
H   14.706518    3.065554   93.996223
H    4.627696   65.497627   46.182404
H   88.626991   74.551994   95.228897
H   44.419270   90.718628   95.130379
H   21.015091   21.519537   17.401335
H   44.579338   17.524700   67.783730
H   18.869892   13.037371   95.412071
H   35.302414   88.713776   46.057831
H    7.097889   21.349813   24.412809
H   48.940239   71.908508   74.487267
H   77.794403    9.845840   59.673893
H   85.884781   42.356590   36.338367
H   86.308876   26.985294   17.415882
H   78.370018   10.314895   14.557119
H    2.110948   45.113472   99.644493
H   56.659298   74.965881   46.742382
H   90.928474   92.417610   36.200752
H   87.990967   48.358540   43.190788
H   42.970951   23.555193   34.890869
H   80.709152   46.638020   66.741730
H   69.174599   66.818298   54.040688
H   97.731995   81.115402   72.831802
H   25.480324   35.849754   66.079803
H    3.220974    4.404617   29.547440
H   86.173584   66.558235   90.984474
H   50.612717   47.073341   14.499091
H   99.764778   65.304924   18.207390
H   49.049728   21.787632   43.807884
H   47.189068   19.184174   11.860974
H   24.636116   56.010941   45.687340
H   98.713997   79.938019    3.538300
H   73.708549   83.860748   17.322788
H   39.060379   43.622013   15.243930
H   26.604340   58.091545    3.123613
H   67.536560   15.539968   40.170635
H   46.540001   59.510063   35.645691
H   42.065186   94.501549   75.546753
H   86.976418   36.801510   85.452637
H   76.633324   69.589050   69.449471
H   36.885502   94.999413   22.505827
H    3.110537   36.054005   63.606747
H   60.081738   60.313190   43.981628
H   34.736023   39.694263   87.243927
H    8.349839    2.864613   75.932320
H   68.650108   56.923393   27.798159
H   95.055817   45.406979   41.228672
H   32.098831   30.819149    3.900805
H   20.536766   88.038322   55.147072
H   62.103401    9.232064   41.874908
H   21.199768   94.587845   40.479694
H    6.687581   36.357578   65.919693
H   81.823006   73.460815   57.582958
H   76.040665   65.486656   98.610191
H   73.433273   92.916077   78.438919
H   83.290428   41.463921   92.044136
H   80.316521   86.671936   15.450607
H   16.061771   63.889519   64.985725
H   83.079956   91.324234    0.475552
H   40.284321   90.721535   96.663010
H   50.092640   76.698959   80.775047
H   80.833252   59.399090   16.622683
H   94.147591   82.021690   47.885921
H   22.979736   57.503334   93.668365
H   32.222733   90.562195   68.287636
H   49.189842   11.173701   92.744072
H   23.360491   68.839439   23.742029
H   40.568840   70.173576   97.735512
H   19.227648   80.319870   53.278172
