100
TIME:    6.911, STEP:  6911
H   49.959305   88.249153   92.818802
H    9.611652   79.361351   13.865527
H   98.563675   71.109062   42.217678
H   82.636597   47.917694   61.348873
H   33.269852   26.704466   78.319992
H   20.847065   93.720894   63.166607
H   90.764832   28.001316   30.902353
H   76.695320   86.491302   73.649345
H   83.742302   21.829041   65.065453
H   85.995552   15.616665   78.311348
H   57.410645   44.321537   74.046394
H   92.066315   70.103378    0.997047
H    3.061478   43.666660   38.309746
H   12.889986   83.774239   83.170280
H   64.547005   52.708244   18.553150
H   23.647690    7.267670   59.367676
H   68.365578   39.079395    2.523941
H   48.856014   58.549759   59.953079
H   52.904591   68.280029   27.460354
H    6.324890   59.046986   86.865654
H   54.168182   68.206207   69.664253
H   24.944641   53.258438   30.742767
H   93.470390   38.415504   34.619568
H   76.926918   19.503878   93.802307
H   82.407661   38.083443   87.579201
H   15.021313   22.364262   40.527100
H   66.136681   55.196396   37.093281
H   49.411186   79.021828   95.212662
H   61.443947   76.112068   30.484682
H   65.991547   19.792870   32.792778
H   88.046715   41.778244   62.602684
H    2.122123   61.564838   59.478172
H   57.159542   62.840645   20.394415
H   70.107933   40.370743   80.602219
H    8.960138   36.410347   45.522919
H   73.399147   26.728184   97.698463
H   42.653725   51.440063   53.025059
H   78.347313   32.478184   10.132308
H   53.358273   30.836317   74.585175
H   12.254841   65.199570   81.778000
H   62.933655   93.317375    5.165517
H   17.792679   68.704636   32.779255
H   70.763336    4.944975    0.663637
H   38.052631   28.643515   56.455902
H   57.176910   59.217251   47.503361
H   88.916618   94.733597   11.237932
H   95.726852    0.681022   91.803108
H   56.609432   66.551041   96.191467
H   67.042793   60.079929   68.793320
H   70.837158   35.923275    0.314272
H   43.027050    2.430717   26.278637
H   41.001911   22.449524   20.372322
H   52.228390   62.081055    1.488028
H   16.650543   94.442017   36.778885
H   90.530472   64.252968   59.131634
H    2.203401    5.264022   57.360046
H   34.379131   90.132256   13.281157
H   11.448600   24.228987   35.544907
H   35.332733   30.779377   80.926689
H    2.965054   58.991642   67.045311
H   95.651390   57.176674   75.559433
H   53.633034   63.615463   82.653397
H   43.248516   35.689247   59.562439
H   17.605259   79.410233   39.506802
H    6.631363    8.873783   39.160679
H   76.793854   98.707176   54.816101
H   33.086502   87.293396    0.724491
H    2.975615   12.784602   96.588364
H    1.344045   53.205948   26.786579
H   70.398399   95.744560   87.180542
H    2.576177   25.177307   79.248085
H    4.144881   22.150826   62.623528
H   56.381226   76.462021   84.550598
H   78.069435   12.022663   92.525909
H   95.378654   38.494602   25.299042
H   89.037071   50.503788   30.907164
H   94.448822   27.635975   13.309050
H   56.671673   98.826439   96.107414
H   92.921425   33.218937   94.785805
H   60.602982   32.545296   25.532249
H   46.110611    0.779308   93.043777
H   59.891663   89.289612    8.830505
H   55.012474   22.694372   88.111877
H   25.615768    3.548080   32.204037
H   15.821043   16.597450   77.808479
H   92.232651   62.909149   21.704193
H   28.724855    0.866478   53.086540
H   67.176903   52.049335   23.921547
H   99.104843    9.379169   71.667732
H   55.314175   24.938358   71.266769
H    6.849327   46.605293   79.409470
H   89.642914   15.252755   65.204475
H   28.461781   34.883854   53.442818
H   15.188424   32.455162   92.797165
H   37.106194   30.684372   74.893921
H   64.741852   22.823732   10.486887
H   14.039871   64.287827   39.731644
H   24.937494   28.416019   40.143188
H   79.489037   66.645576   66.169563
H   68.478706    1.288169   31.981876
