100
TIME:    5.570, STEP:  5570
H   40.645668   11.224589   94.046524
H   46.644844    6.692898   29.311432
H   75.502960   74.632233   57.963215
H   82.411514    3.165474   34.852028
H   45.281067   19.217485   14.679941
H   41.646725   95.173698   30.361814
H   61.044933   37.450985   26.034334
H   82.095276   70.476913   96.774406
H   16.706703   50.760635   49.475891
H   22.626699   96.360313   25.804670
H   82.147202   90.363754    3.219273
H   43.250481    2.886092   96.450859
H   88.633713   24.761848   71.558525
H   79.287941   87.907570   81.119713
H   48.250893   72.492691   83.027924
H   77.565948   24.556595   70.682343
H   76.200813   50.382099   80.447418
H   20.178473   23.801308    6.441240
H   32.023083   12.020442   56.809849
H   42.450615   87.528358   95.564156
H   33.745018    1.705509    6.065346
H   96.381668   51.478241   44.941315
H   11.375842   49.321770   72.985886
H    1.524292    3.461642   93.396286
H   30.368248   44.431419   77.675575
H   21.155119   61.997742   66.639130
H   81.771912   10.937962   10.482935
H   62.560352   16.428459   50.888863
H   32.285545   54.445835   93.875946
H   14.572119   52.982292   26.187305
H   35.269554   21.528488   68.698265
H   17.450260   98.620911   83.621269
H   62.701756   60.954536   99.586540
H   13.446996   63.265465   37.095146
H   42.316818   37.870895   63.900772
H   56.828068   21.695061    1.914622
H   14.034825    0.548998   47.359478
H   33.773960   57.022396   15.501608
H    9.959682   60.055901    4.538218
H   38.561749   90.738396   76.271080
H   54.581436   47.301971   73.572487
H   31.020580   61.844055   64.478081
H   59.218510   96.901581    3.801543
H   23.680706    6.135169   25.341337
H   73.498756   12.129352   32.750835
H    6.225311   69.156052    5.789916
H   85.250290   27.753990   78.932487
H   56.536884   52.739166   13.217917
H   27.846970   71.141663   22.283936
H   42.697430   15.510313   94.091721
H   43.119663   31.896341   12.143788
H   75.824257   46.885342    8.400887
H   24.410252   54.305481   79.372765
H   47.701683   16.321709   77.605431
H   97.302818   46.733463   47.724049
H    0.533143    6.674623    3.010864
H   49.364792   28.826958   85.740730
H   11.302102   50.870064   70.084824
H   29.570837   74.115166   83.871513
H   91.456680   55.917789    5.186531
H   11.060211   19.541576   80.114555
H    1.227614   76.097305   43.330101
H   52.208447   27.196554   51.518829
H   25.521095   72.105286   75.915649
H   53.406776   15.977104   14.278834
H   59.172050   65.371880   75.525200
H   40.677338   40.931515   35.982559
H   95.607613   36.092136   32.480808
H   34.510357   49.561653   10.891093
H   43.232635   28.296555   90.004303
H   45.160545   16.417969   95.331245
H   14.695473   66.667480   64.432449
H   43.817291   42.790543   18.932381
H    7.593609   96.894127   72.203148
H   30.723787   36.581402   23.642052
H   57.339226   64.559013   21.139486
H   72.675529   43.775753   89.556465
H   93.669052   86.511955   22.049509
H   28.614872   37.157879   79.828056
H   26.365467    5.594573   41.060699
H   19.868052   86.905869   12.895106
H   59.254616   80.593109   21.010378
H   70.190819    0.269445   60.403202
H   33.357269   88.795822   54.682819
H   81.116112    0.477171    7.803362
H   23.096729   13.648704   28.581055
H   39.162437   98.368401   89.142548
H   45.609917   59.357525   37.825500
H   71.276474   84.043816   82.635384
H   73.876434   80.111252   23.331976
H   51.970024   74.194580   51.090008
H   90.422493   14.396712   39.657143
H   42.501129   94.646675   49.741230
H   85.586739   51.098583    2.375736
H   60.289680   50.803616   44.078098
H   53.980759   75.778595   79.751083
H   20.481962   87.331703   16.853592
H   27.310354   63.662903   66.900002
H   43.371033   60.860378   78.491493
H   85.185150   35.699406   61.165836
