100
TIME:    4.458, STEP:  4458
H   15.846035   13.199949   95.064590
H   77.356514   46.437042   59.198151
H   56.383659   94.630852   71.015358
H   82.224869   48.981133   95.804329
H   55.241150   30.085863   44.829330
H   58.894466   96.378410   20.236578
H   19.326954   62.364513   39.074413
H   69.496284   74.274994   98.874489
H   44.041786   57.674881   19.471384
H   53.014671   80.393639   82.260498
H   85.582733   45.619740   10.332718
H   85.691032   47.147057   75.603889
H   59.592911   92.005592   82.052734
H   34.346489   91.335060   96.495041
H   34.727577   71.820923   36.480167
H   22.278008   21.816216   62.988220
H   65.621284   76.832169   79.217674
H   96.400581   77.905876   44.989208
H   14.703232   65.374023   98.228241
H   72.409599   11.145479   19.853952
H   99.732689   12.408886   36.246178
H   89.773148   50.002045   39.638382
H   26.223305   58.365593    4.800784
H    4.845007   90.148376   75.983688
H   70.140533   32.617966   69.463173
H   26.224241   94.864838   71.207558
H   77.661064   57.164959   88.421425
H   56.387989   64.524078   14.128291
H    8.105775   53.556484   46.439674
H   71.932877   80.504021   37.786385
H   91.505196   21.813290   56.676170
H   47.237988   29.342270   86.564674
H   84.373024   42.313438   99.408798
H   66.462616   65.173645   83.943169
H   69.957321   21.929649   96.190384
H   60.163898   34.598713    5.412469
H    7.379566   41.274887   59.738270
H   79.734077   77.369667   37.029934
H   56.900753   84.285881   12.299078
H   43.299522   94.839928   88.780579
H   30.578495    9.149930   47.374249
H   30.961502   11.934791   12.242163
H   49.640202   90.233246   23.480188
H   94.686020   87.480865   16.614714
H   69.956322   55.999718   37.594135
H   20.573376   47.946339    1.270084
H   76.562790   67.279015   68.259758
H   56.477497   41.285919   44.413689
H   95.343735   63.236980   66.644745
H   19.375225   98.585670   71.865089
H   43.204502   39.252693    0.421177
H   21.782701   50.070660   81.402710
H    1.343666   47.857727   43.955807
H   73.453392   34.468742   28.534931
H   85.842102   49.276920   38.264515
H   99.144180    7.844339   40.865967
H   78.869156   60.913017   79.980293
H   94.103897   55.884666   98.726425
H   41.869232   27.130787   69.241035
H   64.835358   70.445648   36.814461
H   40.915100   71.253075   66.814003
H   40.691490   86.447647   93.643036
H   76.714729    3.076800   27.772026
H   49.162941   66.047791    6.103031
H    9.267297    4.790534   10.723056
H   27.482979   20.652290    9.775243
H   29.895239    2.488360   82.294113
H   72.421165   72.494888   79.320778
H   79.088821   29.462875   80.634949
H   20.705790   72.368164   92.345856
H   80.470482   92.077271    8.670151
H    6.385134    3.572503   83.016045
H   16.321455   97.796791   47.446724
H   32.071590   67.269768   38.274315
H   77.108528   34.994915   39.345058
H   31.047663   93.288536   95.963120
H   71.713181   40.156635   69.890816
H   41.425274   59.223995   60.640076
H   75.289192   40.424175   67.424614
H   80.896393   66.163109   36.860466
H   98.108810   75.401718   46.432781
H   75.814796   73.341690   14.002230
H   99.851799   81.672791   54.502048
H   56.852295   93.639473   56.246696
H   35.262283   70.035378   15.599175
H   48.692616   72.805855   51.360306
H   64.894463   79.220001   36.118256
H   27.713587   48.375893   49.381767
H   48.200302   45.957542   91.730110
H   72.192184   25.861168   83.579620
H    6.462419   14.151413   27.606607
H    8.143992   30.764999   18.471888
H   71.219978   61.280640   63.748516
H   78.110764   83.643784   27.399057
H   79.514168   50.409782   18.526867
H   62.134109   19.689919   37.187584
H    8.747556   23.515911   80.805130
H   23.229605   54.194885   84.699196
H   96.344421   56.066982   71.633415
H   16.115221   64.230782   68.287735
