100
TIME:    7.126, STEP:  7126
H   35.419510   68.532509   92.621964
H    3.674371   91.010902   27.421951
H    2.260075   86.577278   39.693226
H   82.672684   39.059967   49.563175
H   31.343836   43.937664   72.490295
H   17.512295   93.487968   84.458023
H   79.495834   42.519787   47.715633
H   59.796745    5.092164   53.908897
H   78.457191    1.157448   51.531300
H   80.123207   18.703798   86.729469
H   37.411865   52.972584   53.336563
H   83.861435   80.880280   85.692909
H   89.348274   30.657352   16.944561
H    2.244737   83.111549   99.530830
H   67.158394   33.503380    8.214214
H   15.002384   88.462891   41.520996
H   51.076607   53.299328   22.096247
H   53.453831   48.087799   52.501106
H   56.252483   77.298508   38.786762
H    0.532919   54.481976    1.503852
H   41.409775   46.801994   63.828045
H   45.556900   53.543854   12.433517
H   90.599831   36.666924   28.467897
H   56.950523   22.075899   77.835434
H   74.717842   21.032318   89.167030
H   14.007595   16.026886   20.294230
H   47.596333   46.258293   41.359753
H   31.270855   89.057304    2.318928
H   66.118858   95.618752   20.322081
H   74.235794   14.471554   49.884911
H   96.507484   61.056923   45.592567
H   15.697088   55.625240   39.574532
H   72.303719   47.109978   39.763313
H   79.192024   20.667221   71.544373
H    3.609173   20.131813   58.604469
H   92.088951   43.567963   97.022652
H   63.274185   43.566528   69.966278
H   69.460060   28.543056   25.303627
H   44.282383   26.152384   53.749832
H   92.003975   45.071301   98.692978
H   48.239670    0.695395   10.230415
H   99.673363   69.547760   43.754635
H   72.613617    6.234676   16.192951
H   24.324795   32.252220   77.477654
H   38.528114   50.735157   65.901192
H   86.141197   98.834396   12.111403
H   97.406540   12.373937   93.866631
H   56.622555   68.765472    9.494200
H   73.328499   42.274258   60.217003
H   75.351318   39.195713   85.282356
H   43.012287   81.674026   28.544739
H   51.452389    2.498370    6.259256
H   56.688419   63.327698   89.001808
H   11.672173   90.935013   46.266495
H   73.412094   83.093681   60.960590
H    2.471184    5.037863   50.040939
H   48.008549   83.928566   33.729439
H   95.439377    3.924329   30.006891
H   52.288719   39.865108   64.421791
H   88.776543   75.516724   60.930199
H    9.213835   47.178925   58.795876
H   46.002266   61.614273   72.926300
H   57.845722   21.017612   44.819244
H   32.368977   80.581421   33.668903
H   15.165160   91.702393   59.182423
H   63.585999   88.018852   67.528580
H   15.836130   94.727325   11.105144
H   88.124077   25.081259    6.866607
H   12.059950   37.757416   13.301593
H   74.755089    6.558176   86.727814
H   95.748955   10.548781   76.669502
H   86.452126   14.996512   78.380440
H   42.363052   65.829468   79.039124
H   73.335472   98.415405   79.751099
H    5.738560   38.807835   41.599735
H   94.118782   64.284081   16.440363
H   13.975564    9.026546   17.121973
H   66.772766   84.768898    7.980977
H    3.232060   32.587414   97.183952
H   50.059006   20.832630    7.009946
H   50.318031    3.004093    5.893843
H   76.025429   90.683884   90.843239
H   68.611809   26.289953    8.586880
H   40.406887   21.946449   12.567696
H    5.352522    3.148083   56.966576
H   87.285446   70.805878   36.634384
H   43.084217   85.234215   63.338539
H   70.634697   34.844021   21.692352
H    3.567004   97.408470   69.909309
H   36.304508   16.092113   78.953308
H   15.648029   58.213837   83.949875
H    5.550737   31.422226   69.301994
H   42.243748   41.335232   70.069099
H   35.967003   45.498985    7.294207
H   33.389229   11.425377   79.834564
H   82.499954   14.334176   99.381538
H   96.974327   76.626312   27.366604
H   24.522493   39.053768   35.827507
H   69.246880   67.573997   48.160686
H   81.834190   95.770370   11.269652
