100
TIME:    6.228, STEP:  6228
H   96.148514   50.882805   93.444107
H   28.472420   42.350658   70.801918
H   86.818359   21.971027   50.237217
H   82.521957   76.056427   98.784180
H   39.387421   71.959091   96.839447
H   31.440777   94.460838   95.525780
H   26.561184   81.882240   77.490791
H   30.377777   27.403194   36.359722
H    0.531751   87.496506    8.055913
H    4.651125    5.808638   51.569126
H   20.941635   16.839376   39.837021
H   18.134712   35.867924   49.612938
H   46.645248   84.970634    6.176201
H   46.707222   85.879433   31.193707
H   56.251289   13.717163   51.397305
H   51.109802   67.005348   16.062469
H   23.288521   93.905159   40.347755
H   34.249928   91.784729   83.630409
H   42.269192   39.626198   91.477905
H   24.724495   73.552284   40.363792
H   94.698380   36.200443   88.204552
H   59.464767   52.351746   88.906570
H    2.589675   43.970299   54.160355
H   40.386997   11.333223   44.528225
H    6.835845   92.247787   82.535072
H   18.155584   42.544693    4.764597
H   25.031132   83.586868   23.539793
H    7.041680   47.141685   72.639145
H   46.592949   14.145042   62.771149
H   39.801685   36.696953   78.496902
H   61.168465   80.532066   16.639397
H   58.996952   80.437958   22.706871
H    9.048574   12.812380   58.864380
H   41.250099    2.963749    9.375975
H   25.958557   88.123085    3.966495
H   14.027168   73.232338   99.845345
H   77.144783   76.452271   99.207497
H    6.578964   44.979076   61.932911
H   82.186768   45.718376   40.772530
H   76.584930   29.138535   28.040144
H    9.612259   69.878853   89.074684
H   75.352020   66.026245   97.910698
H   64.885468    0.847718   51.328445
H   81.664566   17.179586   89.676720
H   16.423244   86.166977   89.056747
H   97.733421   81.706406    8.463140
H   90.390915   63.537857   85.247826
H   56.572025   59.516357   53.931263
H   47.079132   16.647369   96.035782
H   56.499554   25.525953   48.070549
H   43.073948   68.370270   19.079811
H    7.801951   85.827759   65.206703
H   38.060017   58.120789   41.156445
H   32.465553    5.584844    6.641367
H   44.912621    4.396602   53.321507
H    1.352726    5.982471   80.610977
H   91.080406    9.840375   48.322121
H   62.305817   88.729530   53.136826
H   81.465729    1.916968   33.358849
H   48.034302    6.492082   86.471458
H   52.567860   88.941055   28.812153
H   77.874031   69.972733   13.555745
H   96.878990   82.295326    6.397797
H   70.706284   75.689667   58.052311
H   79.523590   63.425343   75.555412
H   18.750694   32.660637   14.431756
H   87.884079   63.677776   67.750015
H   50.155251   73.723122   63.937016
H   67.306435    2.281971   69.624512
H   56.561111   61.394066   88.618744
H   24.265785   71.647903   87.439583
H   60.439068   44.829865   12.606410
H    0.913423   10.244965    2.059721
H   93.108025   55.248089   33.106285
H   62.446163   37.520168   73.522598
H   72.893776    6.728699   76.863403
H   32.418545   86.751366    1.196012
H   24.583096   43.486946   58.390312
H   60.166462   35.225124   87.167503
H   94.098495   69.750954   84.373466
H   32.744713   93.713181   52.221775
H    8.641544   84.860229   65.968864
H   11.809098   11.272670   23.066437
H   78.625511   45.102806   94.585991
H   49.077568   59.321426   44.017578
H    7.950964   37.818779   74.274384
H   83.108757   50.526451   20.518560
H   56.192375    6.702467   31.003128
H   84.931259   47.406822   77.253792
H   15.699561   53.040615   46.852264
H   78.898064    9.726349   64.985764
H   39.107830   63.884415   52.192436
H   84.680359   14.389478    0.625380
H   49.179035   91.018745   46.743439
H   48.914040   91.862900   59.198765
H    8.328902   49.794342   45.764725
H   68.253014   25.092073   79.011230
H   26.255846   94.620590   53.853004
H   12.025428   63.696758   23.376678
H   26.056406   18.814709   97.776939
