100
TIME:    3.168, STEP:  3168
H    3.083766   31.499504   96.245621
H   13.146448   76.509537   77.836502
H   34.209816    1.823139   86.152229
H   82.008347    2.127687   66.515808
H   66.795563   26.686672   79.807510
H   78.895760   97.775963   92.483391
H   86.935356   75.256828   38.194664
H   70.887741   62.673107   17.318241
H   75.752449   81.703049    0.671914
H   88.268425   61.871147   31.745485
H    5.575378   93.714066   34.591900
H   34.927261   82.486252   67.427361
H   41.745705   70.038940   10.255898
H   98.220543   95.311195   98.325356
H   19.035492   87.048996   98.488625
H   74.145844   34.644318   70.069679
H   69.355415   91.509674   61.783886
H   68.842003   40.640907   89.714539
H   94.610100   11.253566   30.264833
H    7.169220   38.539288   32.024773
H   76.283112   40.833275   71.255920
H   66.099594   48.289551   49.493805
H   43.446663   68.857079   41.710861
H   24.700012   74.676880   71.791176
H   16.278526   34.921257   59.936195
H   32.132862   33.213985   92.234749
H   88.898697   10.786326   62.831989
H   65.234215    4.311218   71.490654
H   80.055679   36.517410    7.419721
H   22.468342   12.432143   35.235046
H   40.736065    6.136670   58.736870
H   65.786659   64.980125    5.986418
H   93.506805   36.695869   83.195412
H   11.956443   83.394508   38.287491
H    2.022503   19.443787   17.637993
H   47.999752   33.347637    9.749986
H   83.651222   88.516098   58.091305
H   33.052216    0.970961   45.997807
H   11.349210   12.392229   37.309158
H   64.802261   15.605458   87.286049
H   18.741385   64.882828   16.982405
H   46.899376   54.041245   51.636246
H   38.528675   82.497498   30.301922
H   77.061066   65.868011   90.484215
H   81.854713    6.899534   27.205530
H   37.216061   23.341541   96.032204
H   66.484665   97.123688   55.872169
H   56.408604   28.000811   64.595818
H   57.631165   70.074944   18.100748
H   92.322594   78.960884   62.089108
H   43.302921   63.793579   86.819717
H   59.091389   69.773254   66.089928
H   74.592934   40.377869   18.876396
H    3.332363   55.520607   71.611725
H   88.552078   36.219643   27.292887
H   97.530106    9.202383   84.780609
H   97.090034   98.135155   57.290627
H   90.160637   77.708984   31.956367
H   40.129822   72.624344   68.275200
H   49.962639   71.291809   73.505135
H   59.540657   31.245678   67.392532
H   86.476097   98.454788   52.013847
H   89.135918   91.104179   16.231216
H   60.581520   59.027634   41.130421
H   58.067425    7.820608   90.590843
H    6.729981   84.782234   33.500687
H   33.394417   57.886478   20.013498
H   61.530342   98.717834   17.651320
H   14.793922   22.154045   61.542553
H   94.569641    7.483206   95.062225
H   21.434162   79.848854   24.146568
H   12.751428   46.385437   88.567963
H    0.431435   61.602291   80.520500
H   60.474537   48.902733   14.924889
H   14.914062   33.154476   41.554234
H    0.548569   10.611334   82.763031
H   54.589458   51.966118   47.077244
H   80.818726   43.573109   89.396347
H   13.430835   44.213314   53.028229
H   44.160713   36.417614   47.995132
H   72.874130   62.056072   69.332748
H   79.023239   64.917007   21.871462
H   18.238081   60.136475   31.636143
H   68.102402   83.251434   74.068420
H   98.073410   50.725155   40.650291
H   78.380920   25.419529   61.778744
H   78.738274   73.013512   74.605743
H    6.952059   51.656586   62.796303
H   21.428341   17.783163    2.281394
H   86.244812   78.935867   37.466049
H   53.670227   44.494175    0.364096
H   12.691971   33.757240   93.889458
H   88.529633   22.572371   63.990746
H   53.427700    5.394792   40.420509
H    1.816283   65.960449   88.884758
H   55.585403   70.630501    3.817513
H   11.141648   49.485531   54.995110
H   18.495642   43.211304    5.345654
H   57.797203   50.506298   79.683830
H   35.987370   97.338997   92.555923
