100
TIME:    9.956, STEP:  9956
H   44.037994    9.009425   90.031021
H   25.515621   44.365910    5.861974
H   50.905338   90.178825    6.471138
H   83.147690   22.463709   94.439835
H    5.984987   70.774292   95.758614
H   73.632324   90.422020   64.722771
H   31.176525   33.615173   69.025345
H   37.364334   49.921772   94.066429
H    8.890388   29.063129   73.393700
H    2.822704   59.338413   97.538399
H   74.172089   66.842377   80.734154
H   75.849525   22.732624   84.250374
H    8.888535   59.364410   35.708153
H   62.119888   74.388710   14.895580
H    1.531794   80.713837   72.114525
H    1.212752   40.940842    6.605539
H   23.504829   40.482361   79.722305
H   13.970504   10.379913   54.401604
H    0.337882   96.018311   87.894577
H   24.284245   94.385956   94.183403
H   73.473068   65.067818   87.018951
H   16.871765   57.300720   71.432922
H   52.814880   13.655148   47.527786
H   94.001755   55.930878   67.656326
H   73.500961   96.599167   10.062294
H    0.660833   32.600632   53.978474
H    3.561574   28.617182   97.505539
H   92.483528   21.152134   95.863548
H   27.654873   52.378056   86.547012
H   82.750664   44.428635   74.862160
H    7.886007   14.829889   21.692062
H   94.385361   77.436493   77.587303
H   71.645668   40.053650   94.712059
H   98.766190   61.314690   52.320595
H   33.178566    5.861058   30.784330
H   38.094990   65.232483   88.127083
H   34.709160   39.925545   92.959305
H   52.490704   76.757057   25.008522
H   24.825428   64.492516   79.502266
H   25.449863   80.135620   21.351637
H   54.829178   97.798645   76.903526
H   61.176003   80.651443   88.220451
H   96.968475   23.213039   20.605175
H   43.628338   79.760292   54.177135
H   93.017242   39.046055    8.057761
H   49.617416   52.806286   23.608709
H   19.530331   66.284058   21.039846
H   56.795284   97.913574   84.598053
H   56.051468    7.898777   47.296356
H   34.759079   82.279289   87.409584
H   46.718800    8.748688   52.387405
H   88.990311   39.896225   20.486277
H   15.380125   79.737000   24.643017
H   46.131073   44.764061   71.147163
H   48.083595   31.100786   85.015900
H    5.995945    2.060978   53.701050
H   27.419289    2.269980    2.885827
H   84.711868   36.666054   57.111717
H   75.490150   59.449478   47.163235
H    2.026485   93.038879   80.438271
H   87.736267   15.571417   38.155148
H   45.560020   35.273026   44.878601
H   50.003338   27.951715   50.780167
H   26.700420   95.997528   56.836838
H   27.492958   65.674660   22.727495
H   89.737335   47.331291   34.861279
H   88.779579   92.567322   47.738232
H   92.636604   86.931282   42.156982
H   53.109016   34.411667   35.810047
H   32.226151   48.707333   80.727112
H    5.875066   17.989109   42.728157
H   53.414017   21.022850   85.816254
H   57.842743   25.845736    6.475491
H   11.041668   19.305443   11.602179
H   42.060707   42.974934   56.172184
H   61.026924   45.659435   26.017170
H   70.999947   64.084274   67.316856
H   99.723015   99.731529   64.284447
H   38.939339   24.274807   28.767237
H   11.274280   66.668709   63.202950
H    5.720478   32.281750   75.040001
H   88.385979    9.045846   54.084106
H   47.612740   73.617836   78.102448
H   35.106144   64.115799   54.089905
H   67.557571   26.112640   82.631805
H   22.152554   74.755821   33.158192
H   32.093647   79.469536   98.283577
H   16.147404    8.388619   92.355499
H   62.300053   39.837669   46.763557
H   86.094818   99.657578   80.118713
H   31.463858   11.025737   43.714622
H   14.942080   44.265518   23.227785
H   23.652164   26.244162   88.917351
H    5.569685   16.896458    4.110385
H   84.456955   57.932686   44.863228
H   16.246414    2.581350   53.208618
H   72.341942   39.032028   64.609360
H   19.059923   79.082825   79.007042
H   34.431999   79.794609   11.117641
H   57.615654   23.148453   38.647038
