100
TIME:    4.955, STEP:  4955
H   82.236244   67.622597   94.609573
H   63.630165   73.368942   90.534241
H   64.927017   30.386024   65.183556
H   82.308289   28.505039   68.563972
H   50.789566   69.922607   31.353333
H   51.185719   95.839973   69.457176
H   93.279076   95.922211   77.940460
H   30.433067   17.272877   53.242962
H   31.824577    9.890381   88.187294
H   39.432411   87.529823    1.720362
H   39.352997   65.617737   62.457890
H   66.724403   72.059242   40.226311
H   27.878220   61.951714   32.668213
H    9.739123   89.803169   34.317955
H   40.771721   27.426619   12.589384
H    2.293393   78.346573   21.732864
H   25.655617    9.706296   24.461546
H    7.027336   53.723331   27.759695
H   22.444210   86.221390   24.411051
H   59.018341    0.590992   53.692055
H   70.239998   62.932381   22.757412
H   37.421021   50.661819   97.314285
H   19.587639   54.323524   90.581177
H   58.667866   96.104462   39.071655
H   52.364532   93.202759   73.133644
H   23.958635   80.175369   24.472620
H   34.803452   36.503391   98.280128
H   14.453614   87.722366   30.558092
H   18.913124   98.648674   22.946358
H   90.990509   68.203392   77.297035
H   11.064916   66.379059   17.355110
H   78.618996   15.612102   40.554863
H   19.380486    5.951322   44.182487
H   87.461655   19.626434   63.004799
H   57.603607   84.360001   26.453300
H    3.367708   73.525429    3.848845
H   55.047371   23.073273   98.900070
H   59.190945   68.276909   72.101250
H   35.920673   73.456474   64.135941
H   96.488075   48.313148   27.883070
H   96.613068   26.201696   59.083355
H   86.293297   34.240562   35.588879
H   53.921154   93.213608   59.377693
H   62.948704   95.812317   65.208908
H   26.846495   36.392273   80.123070
H   14.161154   57.425861    3.290450
H   80.445602   94.307030   73.029854
H   56.504040   46.404861   75.165260
H    9.871620   22.076893   46.817879
H   29.798908    6.149618   37.104721
H   43.166584   91.269897    5.660510
H   45.935722    3.951998   48.776215
H   11.652892   50.739502   15.089876
H   61.942139   26.358063   50.466454
H   46.270782   92.835945   42.492382
H   99.766037    7.321544   23.946915
H   10.378150   46.572395   27.249290
H   57.095840    8.948864   85.925278
H   81.066811   48.130264   31.084625
H   32.039906    8.645108   22.678596
H   72.265778   48.140812   28.065231
H   23.052958   81.821640   71.157608
H   10.454858   69.162766   93.691223
H   83.290871   68.755142   92.610062
H   28.994184   65.097595   57.006748
H   96.952660   95.945457   39.161598
H   90.019226   19.670349    6.289092
H   38.090126    0.918343    3.080253
H    3.857403   93.751640   49.464508
H   30.774939   97.363770   91.299316
H   64.688972   58.261917    2.707901
H   65.403656   87.078018   19.403282
H   83.915787   73.210701   34.702454
H   21.130253   35.817104    8.744610
H    1.072656   35.703983   77.020477
H   42.798477   25.141348   62.519535
H   16.836481   97.079536   78.680229
H   64.775238   26.724709   88.085655
H   99.124504   38.964329   72.968239
H   56.522644   39.093685   94.043640
H    7.833659   80.543411   76.137810
H   13.104466   76.587479   72.443382
H   31.289553   89.984436    1.832282
H   91.046036   36.169479   10.854842
H   11.061509   38.947067   67.420738
H   37.252728   91.059624   85.873352
H   98.087959   43.084061   59.817062
H   35.713287    8.585587   44.213531
H   58.514023   18.285860   87.665291
H   28.249777    5.411942    1.347855
H   26.801720   40.987309   38.102337
H   44.918720   68.142670   27.941023
H    3.078644   76.196922    2.182315
H   26.147209   13.789628   60.907536
H   70.921928    5.890175   29.945900
H    3.184269    0.064786   11.516870
H   69.297783   52.037899   52.222473
H   25.053465   58.426544   76.743980
H   72.668365   58.209354   30.003838
H   46.984341   51.478863   20.409361
