100
TIME:    5.900, STEP:  5900
H   18.329546   80.962151   93.744400
H   37.530769   24.575819   50.120060
H   81.177856   98.374146   54.088474
H   82.466904   89.569611   16.763412
H   42.325287   45.668442    5.732664
H   36.528240   94.816185   63.044018
H   43.750851   59.735149   51.840763
H   56.157928   99.027634   66.476402
H    8.594673   19.032578   28.702547
H   13.611116    1.098715   38.726597
H   51.451401    3.641987   71.430931
H   30.654427   19.426884   72.960716
H   67.575668    4.805298   38.767998
H   62.948067   86.890419    6.231854
H   52.264107   43.015457   67.166412
H   64.297668   95.693336   43.289764
H   49.664253   72.208992   10.488623
H   27.235586    7.744675   95.001503
H   37.161709   25.865274   74.196045
H   33.560616   80.519081   18.032007
H   14.162346   68.854431   97.108238
H   28.019089   51.916321   16.838745
H    6.969311   46.637901   63.544510
H   70.863670    7.409396   68.888992
H   18.566528   18.259926   80.112709
H   19.650793   52.241653   35.608261
H   53.315918   97.220169   17.030943
H   34.717106   31.831749   61.798058
H   39.460991   84.386322   78.276276
H   27.224892   44.814873   52.421463
H   48.258369   51.119465   42.589714
H   38.286747   89.501801   53.071495
H   85.945305   36.809792   29.315550
H   27.391163   33.022850   23.193205
H   34.114151   12.924637   83.997040
H   85.514740   47.542274    0.876783
H   45.685547   88.463989   73.362282
H   20.135506   50.982433   38.787830
H   96.030273   52.865349   72.558540
H    7.479746   59.845875    2.233717
H   32.027878   58.624069   81.347145
H    2.994046   64.739990   81.164360
H   62.060993   98.880493   27.637604
H    2.609743   11.674215   57.605927
H   44.874187   99.109604   60.989361
H    1.966861   75.450302    7.130591
H   87.828415   45.700455   82.099754
H   56.554508   56.138062   33.636463
H   37.492279   43.811371    9.119811
H   49.618587   20.533125   71.009445
H   43.096470    0.036163   15.622621
H   91.862007   16.263203   86.737709
H   31.255878   56.218933   60.207531
H   40.060463   10.936940   92.167809
H   71.028099   75.653275   50.531284
H    0.944197    6.327496   91.776871
H   70.285118   19.305016   17.126686
H   86.729645   19.705473   61.585068
H   55.596306   88.058189   58.538414
H   69.678574   81.281906   95.800560
H   31.877666    4.195419   54.384602
H   89.515388   73.025711   28.397621
H   74.612267    4.677301   28.889740
H   48.182556   73.902924   66.957672
H   66.505890   89.620956   45.010609
H   38.899529   48.966545   95.037376
H   14.200356   52.339214   51.914566
H   72.812355   54.964817   48.256718
H   50.958492   25.849953   90.194580
H   49.917130   44.895470   89.309418
H   34.681877   93.964676   91.373421
H   87.485123   55.715485   88.592300
H   22.300457   26.468292   10.470390
H    0.329965   76.007286   52.595299
H   46.633236   37.052212   48.658340
H   65.141212   85.707695   98.934937
H    2.636291   15.172903   95.392494
H    9.173060   64.935265   40.275139
H   44.438618   36.188564   83.508934
H   10.183664   87.618385   12.630824
H   26.325953   90.319870   32.617649
H   84.023270   82.733154   93.405632
H   91.062553    5.787818   91.829422
H   56.059372   17.034756   24.543430
H   65.048149   79.837013   75.813599
H   15.500828   25.770172   51.497162
H   61.202385   74.374718    4.878239
H   50.917229   32.949368   34.403946
H   78.124619   65.669640   79.936409
H   44.699657   66.535812   35.128326
H   65.474968   92.014862   58.059002
H   14.839151   39.215347   45.943840
H   63.654846    4.547376   75.260635
H   17.480038   71.119331   24.626863
H   54.584572   21.243298   51.661411
H   81.237381   62.746979   62.706253
H   94.288414    6.269637   97.874634
H   26.888964   78.389755   60.436928
H   27.650513   62.282879   50.850983
H    5.683714   27.231670   29.374836
