100
TIME:    6.582, STEP:  6582
H   72.208572   18.419687   93.120010
H   18.696854   61.534481   93.121376
H   92.905975   47.439095   46.080677
H   82.581375   61.472076   79.381592
H   36.216675    0.333752   87.240784
H   25.950039   94.077324   30.583431
H    8.008290    5.784936    5.174093
H    2.554077   58.027630    3.855779
H   91.829750   53.460953   85.773537
H   94.981606   10.892084   65.429665
H   88.013428   31.083426    5.738308
H    4.622581   53.612217   24.414829
H   24.055710   63.563992   71.000908
H   29.179211   84.788307   58.134243
H   60.550972   82.096153   34.374126
H   36.876556   36.043312   86.677246
H   94.821724   17.319592   72.573769
H   41.820286   74.558990   71.357948
H   47.781536   54.477928   10.128314
H   15.187950   66.033241   64.465782
H   73.691513    0.957683   78.595085
H   93.403091   52.821686   58.760178
H   97.863014   41.091240   44.032333
H    7.494892   15.568087   18.236589
H   94.174873   64.175613   85.149452
H   16.541853   32.079071   71.474709
H   94.505501   68.872879   30.564589
H   77.171249   63.665215   84.339035
H   54.290245   46.262310   46.036957
H   53.375935   27.935539    6.639041
H   75.099770   12.276622   88.632118
H   81.348816   70.655640   89.935371
H   33.984058   86.912224   90.755493
H   56.207161   70.521713   94.462830
H   17.148529   61.320290   25.505106
H   44.799404    0.958839   98.732613
H   11.098794   63.488403   27.101049
H   91.946877   38.499844   86.915138
H   67.245911   38.004875    6.467886
H   43.242466   95.998138   55.893360
H   85.418869   82.027077   97.414772
H   45.518921   67.414459   15.983174
H   67.931976    2.971350   76.898338
H   59.059414   23.121359   24.289045
H   85.715813   72.198410   19.349844
H   93.163658   88.458420    9.901320
H   93.156540   82.789200   88.645439
H   56.590931   63.162445   75.834793
H   57.425919   87.328896   81.915970
H   63.929470   30.915411   23.318140
H   43.049641   34.194275   22.810974
H   25.009701   52.979515   41.968971
H   45.403507   60.173401   20.595961
H   24.268608   99.808548   22.261478
H   16.726280   35.419807   56.332905
H    1.793632    5.610098   68.559982
H   13.522876   99.625343   81.990364
H   35.945953   55.298958   44.018906
H    9.385972   16.876095    6.183121
H   24.675034   33.702679   76.402855
H   74.898125   72.476944    1.212260
H   65.309883   66.677750   97.538116
H   20.912020   58.139320   82.122955
H   95.013535   77.618042   48.440144
H   93.573181   35.150608    8.521792
H   97.004944   15.062223   35.363052
H   59.482407   75.917755   84.840714
H   25.702156   93.968361   80.860260
H   84.948097   76.845795   47.421871
H   63.731750   79.198174   87.873322
H   13.023861   47.562119   83.193916
H   31.251425   33.081360   38.525032
H   77.832291   92.734528   92.984436
H   85.313499   32.844906   12.073690
H   79.515007   38.025219    0.357815
H   81.260872   29.416836   53.043541
H   64.568939   56.112728    7.474362
H   41.214657   20.339022   77.939522
H   77.143120   34.185314   91.116081
H   76.737717   50.467201   53.875969
H   39.672279   97.375473   73.379883
H   35.205116   87.156052   36.354488
H   34.201477   17.192297   56.780594
H    2.981206   75.395042   62.252094
H   31.841013   37.177521    9.701265
H   99.803024   50.823158   98.857117
H    6.751678   24.787773   37.398598
H   61.885674   78.376099   27.332733
H   92.277451   27.696638   74.358528
H   84.401627   38.475170   59.505539
H   93.385185   28.841301   72.461594
H   65.300247   90.508957   58.936348
H    7.372413   25.011745   28.000742
H   83.391670   12.495191   70.613159
H   42.794014   60.155113   67.333588
H   37.567825   35.814972   27.480270
H   40.153831   45.407074   58.652557
H   25.572542   12.136956   46.747185
H   95.161919   65.224876   93.725121
H   48.043667    9.730549   63.676540
