100
TIME:    6.630, STEP:  6630
H   68.962479   14.017973   93.076065
H   17.371353   64.135658   96.147743
H   93.731415   50.892464   45.517078
H   82.589432   59.494537   76.750732
H   35.786743    4.181119   85.939270
H   25.205532   94.025322   35.337162
H    5.492650    9.026209    8.927790
H   98.781364   62.180096   99.448555
H   90.649818   48.845963   82.752296
H   93.670570   11.581385   67.309059
H   83.548584   33.014820    1.114724
H    2.790443   56.018223   20.998264
H   20.992722   60.661037   66.231377
H   26.802685   84.640358   61.787197
H   61.133980   77.808556   32.065899
H   34.946625   31.845070   82.692871
H   90.961861   20.494274   76.943398
H   42.846775   72.223297   69.693886
H   48.528973   56.491722   12.657001
H   13.894859   65.013710   67.733849
H   70.843124   96.179291   77.292107
H   98.004898   52.885406   54.672531
H   97.222145   40.700859   42.659042
H    3.034987   16.142305   14.671675
H   92.458076   60.368866   85.503944
H   16.323042   30.660004   66.960793
H   90.366585   66.877762   31.517103
H   73.120956   65.905693   85.925461
H   55.333946   50.617290   43.767914
H   55.216511   26.747551   10.454792
H   76.988686   16.580803   84.834511
H   84.379578   69.329224   85.491768
H   37.365284   83.400261   95.079712
H   58.235237   66.122787   92.440613
H   15.953945   57.686012   28.425638
H   48.972012    4.718482   98.581734
H   15.702615   61.730591   30.883276
H   89.962746   37.621304   90.302589
H   65.220032   36.958977    1.816422
H   38.721592   91.504730   59.670094
H   82.138351   83.674294   98.545631
H   41.473755   67.602692   18.433674
H   68.345062    3.259306   80.365623
H   55.994595   23.927023   28.982222
H   81.551994   70.304367   23.457449
H   92.544029   89.373947   10.096327
H   93.531540   85.399551   89.106133
H   56.593494   63.656830   78.804764
H   58.828873   83.353310   80.001419
H   64.937256   31.646185   19.962000
H   43.046345   29.560144   23.316895
H   27.343014   48.525291   38.818092
H   46.399235   60.451721   17.808180
H   23.157158   99.025589   24.379459
H   12.904320   39.626472   56.741230
H    1.853416    5.559607   66.925949
H   16.565798   98.240334   86.555550
H   32.371735   50.765999   42.782578
H   13.171586   18.904537    2.498251
H   21.507675   37.392254   75.037621
H   77.925957   70.244522   97.469681
H   63.606270   66.230972   95.366486
H   24.170748   54.863930   78.831451
H   98.309433   77.879517   47.136799
H   95.478210   31.316780   12.991946
H   94.056213   12.676085   38.201187
H   55.631332   77.577423   87.158096
H   22.386482   96.713478   83.154938
H   87.340187   73.396820   44.411251
H   64.704308   81.612236   87.772247
H   11.499599   44.296249   82.618233
H   27.293600   31.488342   42.039558
H   74.702652   90.360016   91.753967
H   84.256615   29.807053    9.221823
H   81.829460   38.093700    3.996629
H   82.395393   32.493221   49.813927
H   68.928314   51.958065    8.325647
H   43.469784   17.200411   80.590157
H   79.445122   34.044323   91.651482
H   74.383713   47.852455   49.740715
H   40.611610   97.872055   76.248779
H   38.806801   87.467331   32.338985
H   37.237732   17.995031   61.352005
H    6.283513   79.502464   57.868183
H   29.503672   34.174957    5.048281
H   98.698532   52.586464    2.190415
H    9.957506   21.297783   39.687416
H   62.657646   74.535278   26.835052
H   93.273544   25.024214   73.965950
H   80.157974   36.500195   61.221237
H   95.349541   31.433159   73.475266
H   68.851761   94.119064   59.850777
H   10.449235   26.452053   31.712656
H   88.030830   15.407208   73.849731
H   41.964180   55.855431   68.436615
H   41.532425   33.919464   25.001022
H   36.343773   48.161713   55.892059
H   25.479891   14.512017   45.783684
H   92.875298   65.432152   89.704857
H   51.024990    8.498798   59.052395
