100
TIME:    7.543, STEP:  7543
H    7.220221   30.291462   92.240189
H   92.157944   13.607190   53.716419
H    9.428217   16.577568   34.796963
H   82.742676   21.879158   26.704773
H   27.607214   77.362053   61.183395
H   11.045001   93.036201   25.754353
H   57.640148   70.678116   80.325577
H   27.021370   41.166920   15.620065
H   68.206535   61.064697   25.281502
H   68.733589   24.691301    3.056960
H   98.623550   69.751587   13.169916
H   67.947784    1.782396   56.009911
H   62.757652    5.418516   75.503609
H   81.597176   81.826241   31.265797
H   72.223274   96.254898   88.159454
H   98.234818   51.990662    6.905781
H   17.544044   80.881332   60.057400
H   62.371456   27.796463   38.047745
H   62.745838   94.790161   60.754726
H   89.296158   45.627979   29.895090
H   16.664398    5.287181   52.511600
H   85.535095   54.097427   76.922165
H   85.032280   33.275490   16.535841
H   18.204119   27.064425   46.865364
H   59.803169   87.962219   92.246681
H   12.041454    3.735325   81.053001
H   11.637220   28.922815   49.634724
H   96.085716    8.521430   16.103380
H   75.186012   33.451618    0.611218
H   90.225800    4.150110   83.035698
H   12.919282   98.451523   12.600853
H   42.026821   44.105183    0.970796
H    1.675064   16.600603   77.329964
H   96.810936   82.451820   53.976364
H   93.231102   88.559105   83.974091
H   28.337505   76.228806   95.711891
H    3.271246   28.295145    2.824316
H   52.225098   20.910740   54.728928
H   26.679379   17.067732   13.339695
H   52.726616    6.032491   31.501696
H   19.740858   15.002576   20.054289
H   64.530983   71.183029   65.041924
H   76.202301    8.736097   46.311810
H   97.698517   39.251427   18.250252
H    2.356819   34.283840    1.584488
H   80.758171    6.786945   13.805529
H    0.664753   35.052742   97.868904
H   56.648006   73.060440   35.295620
H   85.519844    7.739533   43.581161
H   84.106689   45.542721   56.126617
H   42.983654   41.415863   32.940262
H   71.718292   63.805340   78.885742
H   65.338310   65.745605   64.784554
H    2.016449   84.133057   64.668045
H   40.210403   19.637104   64.507462
H    2.990556    4.599219   35.845276
H   74.444534   71.896294   73.389488
H   64.388351   64.544121   19.264700
H   85.173393   57.487202   32.409966
H   61.257256    7.567401   49.069725
H   35.519299   27.787594   26.284561
H   31.202126   57.732895   54.058578
H   86.155022   92.561920   16.224304
H   61.005276   82.852982   22.346096
H   31.716694   58.398357   98.015297
H   37.968903   67.288475   92.184875
H   82.379242    9.144390   31.238997
H   59.319160   48.929924   26.801620
H   32.844261    7.794449   87.148773
H   83.219170   27.510012   85.845016
H   82.507729   82.176254   71.668251
H   52.119152    1.142049    8.945621
H   15.173330   45.204357   68.349426
H   64.153786   72.022034   54.973907
H   25.824694   39.421856   73.217056
H    3.975984   91.008324   88.381203
H   51.848347   72.935371   24.517271
H   86.364182   57.503048   31.011271
H   23.227942   31.362553    1.836220
H   29.608784   98.115990   71.085030
H   58.481651    7.318154   30.817703
H    7.317781   93.388123   55.956112
H   94.986092   33.263706   48.300865
H   69.094658   57.630123   74.480156
H   85.048462   77.060448   16.543585
H   77.690170   86.121414   65.592010
H   70.934700   54.914925   83.222649
H   77.341209    1.475168   17.368752
H   12.221955   74.190193   66.498787
H   99.435699   98.934708   93.861618
H   32.713367   80.731377   92.756149
H   36.404514   62.785004   77.249275
H   68.974350   53.847904    2.316348
H   76.267494   70.797935   35.411633
H   26.178761   74.074173   89.417114
H   16.942505   97.867798   77.843071
H   63.874443    0.557218    3.383605
H   23.717585   59.685520   27.456228
H   49.381859   69.374702   13.231464
H    7.736877   85.067947   71.099838
