100
TIME:    4.215, STEP:  4215
H   32.278473   35.484283   95.287064
H   84.067787   33.268486   43.875313
H   52.206726   77.148170   73.866722
H   82.184082   58.992424    9.123900
H   57.417679   10.608340   51.418243
H   62.663532   96.641670   96.171318
H   32.062611   45.955265   20.071497
H   88.595604   53.252232   21.186268
H   50.015190   81.038269   34.767506
H   59.655495   76.904518   72.746063
H    8.185989   35.842045   33.739605
H   94.964455   34.966652   92.901176
H   75.099289    6.700359    6.198545
H   46.378578   92.084053   78.003815
H   31.772320   93.526886   48.161861
H   32.049210   43.069817   83.159119
H   85.161842   60.758862   57.096428
H   91.208336   89.725075   53.414845
H   10.918407   55.179443   85.424911
H   78.957726   16.305929    3.309432
H   14.152634   36.600986   42.840652
H   66.476501   49.679459   60.332092
H   29.467705   60.341896   11.753533
H   27.422356   87.233978   94.029968
H   78.831818   51.889702   67.668556
H   27.331972    2.047496   94.059258
H   98.614326   67.266495   83.601173
H   76.891907   53.181656    6.095620
H    2.821600   31.509415   57.926704
H   62.614960   86.518211   18.468948
H   81.942558    0.023308   75.901558
H   31.894758   36.055397    9.060356
H   67.257423   60.092751   77.517441
H   56.195480   87.443207   94.180641
H   75.997467   40.298515   81.392212
H   39.040073   15.566124    6.176989
H   84.072159   50.173813   40.590748
H   89.778740   81.815422   19.882816
H   67.158051   89.580742   35.847084
H   66.186623   17.588844   69.662720
H   47.186035    0.812585   41.649273
H   52.800949    1.028360    0.826160
H   47.547100   88.776047    5.928222
H   10.203009   83.409607   92.855225
H   91.035652   65.586761   16.799635
H   23.708393   43.311481    0.282243
H   74.664352   54.064110   65.927498
H   56.464520   38.783096   29.378212
H   88.239426   83.363312   76.337158
H   14.278735   94.888908   88.862038
H   43.223042   62.712486   97.859100
H    9.974012   72.619461   97.354034
H   96.304253   46.448730   58.069874
H   79.081963   38.434326   17.812653
H    5.189785   27.980677   36.197369
H   98.840134    8.100042   49.138260
H   63.462955   67.924629   56.869041
H   12.198089   78.832771    4.985783
H   22.705023   16.862724   87.895409
H   80.871964   51.767811   43.725960
H   25.586313   82.554710   85.761299
H   49.316032   88.709457    4.637570
H   60.217922   19.659031   44.435265
H   32.475601   64.724075   12.701214
H   99.622017   24.198574   88.093391
H   42.410927   32.732582   95.407501
H   49.391403   94.086639   70.562363
H   89.206764   58.597733   67.703972
H   66.978867   46.923309   95.874359
H   15.782644   60.146385   92.857544
H   88.186592    8.610979   11.585476
H   26.421417   11.637490   65.225609
H   32.166168    9.816242   53.677826
H   37.422070   82.646370   52.712822
H   65.391609   34.648228   20.923723
H   25.302294   77.715416   12.313932
H   49.650055   61.219280   65.593376
H   30.008694   75.112846   47.219383
H   63.635368   41.137943   64.714149
H   92.813538   79.396553   57.795189
H   93.355301   72.887772   31.908998
H   57.582466   71.754715   34.322266
H   84.479897   77.614166   31.357952
H   40.135292   72.845650   78.441452
H   47.094147   85.234001   39.155365
H   54.285961   63.880951   34.485718
H   48.665047   96.888077   24.531111
H   23.802694   67.831169   51.908691
H   43.157578   59.487617   93.717537
H   93.675674   35.859482   74.892044
H   96.517731    1.030230   22.474894
H   90.163742   12.490774   13.841665
H   55.643150   53.989082   44.956951
H   54.624271   68.904938   11.014837
H   83.715202   72.176231   12.943463
H   42.063324   29.285000   49.738777
H   28.035225    9.570767   94.780151
H   22.337858   52.125885   88.588768
H    7.920282   55.019505   91.986000
H    1.021920   70.467445   91.695618
