100
TIME:    6.358, STEP:  6358
H   87.357010   38.961113   93.325089
H   24.882523   49.395565   78.998329
H   89.053925   31.323406   48.710804
H   82.543777   70.700592   91.658936
H   38.223022   82.379166   93.314514
H   29.424404   94.320000    8.399960
H   19.747868   90.659859   87.656960
H   20.160034   38.649456   24.423153
H   97.336098   74.997574   99.872658
H    1.099917    7.675370   56.659153
H    8.849350   22.070242   27.315090
H   13.172630   42.384190   40.359245
H   38.349655   77.109459   93.258720
H   40.270302   85.478737   41.087124
H   57.830269    2.104930   45.145855
H   45.882904   55.635109    5.271173
H   12.834649    2.504027   52.182167
H   37.030003   85.458893   79.123573
H   44.293499   45.080223   98.327423
H   21.222374   70.791054   49.214806
H   86.983994   23.258167   84.675652
H   71.927994   52.524323   77.835861
H    0.853821   42.913017   50.441025
H   28.307758   12.888399   34.872845
H    2.186459   81.938797   83.495155
H   17.562971   38.701385   92.539650
H   13.821072   78.183426   26.119520
H   96.072617   53.209648   76.935715
H   49.419640   25.939323   56.625824
H   44.786579   33.479485   88.831680
H   66.284828   92.189934    6.354230
H   67.205261   76.845581   10.672112
H   18.205753    3.301248   70.575806
H   46.742805   91.050034    3.899542
H   22.723236   78.280251   11.876084
H   25.327528   83.414375   99.436714
H   89.613960   71.691528    9.450818
H    1.205993   42.599697   71.107033
H   76.700012   42.885735   28.174566
H   64.339905   16.968391   38.268604
H    0.727918   74.340065   92.137428
H   64.396362   66.536041    4.547570
H   66.004242    1.627569   60.718018
H   73.363022   19.361593    2.387776
H    5.146732   81.037277    0.181023
H   96.055260   84.185959    8.991285
H   91.406540   70.607559   86.495537
H   56.578968   60.855316   61.974934
H   50.878799    5.881124   90.850540
H   59.228054   27.505133   38.980507
H   43.065022   55.819763   20.450012
H   14.120981   73.765091   56.673073
H   40.756779   58.874573   33.605709
H   29.455376    3.463586   12.377566
H   34.561974   15.789405   54.427387
H    1.514641    5.845724   76.185471
H   99.322441    6.089059   60.686165
H   52.625641   76.452766   49.788437
H   91.719177    7.410419   23.379143
H   39.456039   16.484661   82.773949
H   60.768238   82.894913   18.676731
H   73.260078   68.762711    7.673494
H    5.704590   73.424477   97.483307
H   79.632675   76.397827   54.522419
H   84.683044   53.041965   87.661583
H   10.765045   26.197929   22.118422
H   77.454086   68.172638   74.026260
H   41.175301   81.157814   70.151764
H   73.785011   92.941010   61.471432
H   59.194397   67.932549   88.345001
H   20.137329   62.802841   85.880440
H   49.720455   40.515442   22.124424
H   92.437271    3.814987   98.726624
H   90.245628   47.020931   25.382406
H   68.714226   37.705639   83.377335
H   75.966438   15.060513   68.115540
H   44.225185   75.500145    3.501614
H   30.690731   34.986046   65.569893
H   66.400444   34.843273   88.617546
H   87.723068   62.669350   73.173820
H   35.288734   95.058090   59.991703
H   18.396563   85.703415   55.093502
H   20.032288   13.446494   35.447342
H   87.569756   56.227074   82.711906
H   42.747765   51.189484   31.415497
H    4.958764   42.594398   83.301941
H   91.791161   41.074394   26.717443
H   58.283134   96.299927   29.655243
H   87.629013   40.168510   76.190559
H    4.205592   47.691723   51.498947
H   84.218193   16.745964   67.731125
H   48.726513   73.661789   54.669014
H   93.013641   18.290310   10.678477
H   61.742435   98.905708   55.509155
H   46.666573   80.218918   62.186131
H   19.066360   44.660675   39.050095
H   57.934105   32.552094   71.534882
H   26.004915    1.053448   51.243523
H    5.832700   64.257591   12.487473
H   34.130825   15.478718   85.254204
