100
TIME:    5.362, STEP:  5362
H   54.712074   30.298603   94.236954
H   52.389473   95.421814   16.196381
H   71.926056   59.667633   60.405476
H   82.376602   11.735603   46.254005
H   47.144104    2.545431   20.319134
H   44.872921   95.399040    9.762756
H   71.946602   23.405209    9.768464
H   98.443665   52.482327   15.872321
H   21.819740   70.758926   62.569519
H   28.310232   93.373741   17.659040
H    1.494854   81.994370   23.254852
H   51.189812   92.460167   11.256247
H    1.906647   37.340187   92.226494
H   89.587013   88.548683   65.291832
H   45.721352   91.072281   93.025482
H   85.928986   42.748978   87.947968
H   92.926888   36.625141   61.512360
H   15.730376   33.921703   13.651384
H   28.783401    3.294108   45.852207
H   48.054008   91.946327   81.402534
H   46.088036   22.413101   11.710793
H   76.440506   51.202118   62.654449
H   14.153338   51.013420   78.936813
H   20.850536    0.973360    8.843894
H   37.807526   60.927391   76.139442
H   22.103300   68.145966   86.199432
H   99.707214   19.584496    6.355690
H   80.111488    6.719719   44.012764
H   27.762840   35.574253    3.708230
H    6.596686   58.130241    9.652454
H   27.083141    2.876972   85.154564
H    4.317257    4.367653    2.876861
H   48.049778   76.173042   80.848259
H    4.658269   82.327477   45.858086
H   47.486984   53.594040   51.235611
H   38.746769    5.403233    2.568734
H   94.084778    8.166935   30.969830
H   42.370274   60.829403    0.823940
H   18.739803   64.588127   24.694441
H   58.152203   10.210457   59.906422
H   68.797012   40.165619   68.672096
H   49.714470   52.508240   54.707371
H   57.426884   95.654266   88.776894
H   36.961590    2.643760    5.004426
H   91.541969   20.335472   14.951247
H    8.909445   65.188766    4.944884
H   83.625290   16.441673   76.936150
H   56.525776   50.596832    0.348135
H   21.767502   88.369202   30.581116
H   38.335003   12.344419    8.639687
H   43.135532   51.977158    9.951070
H   65.715614   66.186798   22.056282
H   20.095432   53.099426   91.452354
H   52.517967   19.716118   68.426720
H   13.864426   28.504732   45.954639
H    0.274065    6.893419   10.091675
H   36.179123   34.828667   65.958260
H   26.789711   70.512886   75.442245
H   13.166838   65.326836   99.839043
H    5.183033   39.929630   11.102547
H   97.939270   29.214611   96.332817
H    8.609289   78.033340   52.742088
H   38.086498   41.390182   65.782013
H   11.238074   70.972229   81.561890
H   45.150063   32.589741   94.908379
H   71.949883   75.712212   63.226616
H   57.365326   33.741207   25.940086
H    9.975808   24.196108   22.537207
H   24.143049   64.507210   23.936958
H   39.019379   17.834824   90.442291
H   51.765282   30.570068   97.825874
H   31.846016   73.570557   49.202881
H   57.379059   53.078506   24.265999
H   12.171856   10.058449   84.562035
H   20.695284   36.284649    7.873682
H   52.421379   51.227417   35.135098
H   53.790394   61.804684   85.877998
H   83.896835    0.111816   10.562026
H   18.641117   37.768841   77.507988
H   36.564125   16.924774   58.980133
H   15.797636   84.754013    0.463645
H   43.644142   79.244232   38.409805
H   57.034462   96.790955   40.593754
H   19.047346   70.996994   73.680573
H   91.243797   13.487908   27.966530
H   27.884449    6.008506   14.136912
H   25.270590   13.491852   79.224335
H   42.264702   76.001526   39.982117
H   66.960068   95.625114   84.336555
H   92.265594   88.667892   15.896496
H   43.457817   62.962551   46.697430
H   75.032600   98.753372   35.694618
H   29.167879   88.406929   33.656269
H   65.483711   38.479443   88.350624
H   63.885628   69.435112   39.298313
H   36.800827   83.992462   90.494492
H   36.991661   75.394936   28.815750
H   26.547049   61.891907   70.229347
H   53.279724   59.963772   95.912636
H   72.264496   41.036198   81.202438
