200
TIME:    0.239, STEP:   239
H    9.440426   62.478313   15.322477
H   27.955372   32.863567   89.856583
H   18.158651   69.094383   45.298943
H   17.808798   76.962074   44.525845
H   15.220760   83.703903   53.672878
H   89.651123   52.842136   65.579033
H    3.344744   55.304840   49.632008
H    2.866217   88.843201   25.107826
H   87.387863   87.521217   47.743813
H   10.896404   74.912895   96.111900
H   12.158820   94.572823   92.930069
H   30.773666   41.996151   12.694628
H   11.149631   86.974693   61.332664
H    4.450951   53.202717   42.217617
H   19.670151   71.936890   42.981052
H   29.329536   26.007568   54.344578
H   84.160370    7.671667   15.480600
H   36.585926   83.118965   43.538170
H   64.992149   29.738119   42.469112
H   90.053070   79.718407   37.509487
H   58.073074   76.708336   25.886288
H   90.051292   48.776146   70.613228
H   95.035156   62.548729   49.160202
H    8.587050   88.050064   91.589218
H    3.202996   12.663749   45.446033
H   18.661921   62.291901    6.989576
H   98.876396   58.776691   49.041656
H   94.487335   70.088181    0.728640
H   11.026475   56.560127   38.344219
H   93.094612   20.737556   98.660492
H   13.362798   51.407475   16.193590
H   31.944237   63.482895   93.578506
H   27.147461    8.964021   73.166939
H   96.459648   63.576828   38.272820
H   48.036427   89.842331   34.226696
H   33.093922   49.944752   79.465012
H   86.235764   74.450584   85.947426
H   32.964371   44.729446   15.212404
H   53.107262   46.436424   44.409405
H   90.092339   39.692600   63.735443
H   80.504013    5.270516    1.491089
H   13.289537   43.127857   39.860790
H   76.719864   87.804901   50.291149
H   37.283493   63.185390   18.712570
H   28.742840   76.264641   44.327827
H   41.073864   13.864522   42.677002
H   79.955307   26.261173   96.157082
H   90.140167   65.550621   47.683609
H   87.041695   28.790112   61.165611
H   62.153183   17.796991    5.754734
H   78.232025   70.508774   27.908363
H   21.176344   35.680767   63.520138
H   52.149799   94.450851    7.915142
H   22.421476   82.162598   81.688354
H   77.241226   76.407173   90.805695
H    5.318474   72.374695   78.615479
H    5.433338   16.741676   49.665318
H   67.397751   58.556149    5.321489
H   28.202263   74.458145    7.102299
H   43.126419   95.994789   67.012718
H   50.422756   15.395916   42.265720
H   89.918724   16.422514   49.058517
H   71.419762   25.185753   84.918655
H   24.101809   65.150909    3.645177
H   71.332298   76.064163   17.888710
H   38.778927   16.522274   32.845322
H   86.212502   23.183081   85.814461
H   97.347023   91.447655   87.251755
H   16.486916    5.839734   61.992462
H   45.242722   41.612556   50.982647
H   58.465603   76.574837   73.254593
H   32.168594   23.848118   44.771828
H   77.462051   25.645809   99.529243
H    7.832785    8.986672   60.543518
H   79.132858    0.855393   67.659737
H   53.288483   19.111908   62.884007
H   95.431808   29.912970   72.159721
H   26.592279    5.951729   48.001732
H   11.522957   29.648872   34.960606
H   68.291161   90.672523   94.309052
H   43.325657   30.118950    1.148466
H   26.592489   68.608231   87.888145
H   11.003614   13.655332   90.308975
H   24.706676   61.826897   93.818939
H   38.943829   99.313278   57.810535
H   24.639040   85.809311   27.803638
H   35.810398    2.782025    1.769031
H   75.339806   18.581562   11.404471
H   65.657341   72.048180   77.162689
H   23.449139   86.002335   54.876507
H   41.284740   34.884163   80.758934
H   84.062393   88.526688   98.346024
H   47.212189   16.873377   95.758308
H   60.072708   94.469574   69.077209
H   25.099562   56.939728   67.898132
H   69.313484   27.686939   29.108700
H   79.292030   14.313761   98.286156
H    6.922184   28.423170   48.584103
H   37.040565   69.788048   52.877705
H   67.187042   97.911133   27.250162
H    9.821632   80.398743   68.892708
H   90.535118   76.641441   65.870117
H   23.158667   37.206497   30.488867
H   21.827850   67.937637   90.122658
H   25.340065   27.485874   25.055115
H   87.383514   26.821842   43.937588
H   65.610931   30.084364   56.263885
H   64.757088   34.235981   18.780273
H   72.771149   40.102276   99.084236
H    4.334610   28.074331    5.532370
H   47.181385   96.075470    0.795147
H   85.953804   63.320148   90.499771
H   57.111408   80.263054   93.957123
H   63.227562   19.418905   74.979767
H   63.883629   81.926926   26.807722
H   14.079304    5.826567   78.889275
H   32.616055    8.428629   84.168442
H   40.776188   26.947258   33.998497
H   18.824364   57.676067   83.589081
H   70.756241   46.654903   49.305454
H   40.544136   21.752789   87.552597
H   18.332245   27.503719   48.158749
H   32.212288   21.864742   23.999485
H    4.092045   67.354813   17.908995
H   76.946297    8.976855   92.846207
H   47.685711   62.325066   25.550694
H   95.411491   49.185257   71.093384
H   75.450546   87.562126   34.994129
H   92.455414   52.519867   84.913055
H   67.696724   24.154085   66.484573
H   48.568588   85.221405    3.373131
H   81.738388   86.041458    9.303403
H   92.441017   82.546082   97.367714
H    0.969615   12.977317   49.694782
H    4.376683    1.388202   56.462837
H   62.384712    1.628134   83.696335
H   68.891060   86.561974   55.288879
H   91.209816   64.252144   83.214172
H   46.287094   44.319649   71.550323
H   43.447403    9.137892   95.485275
H   50.568150   63.098072   14.877642
H   57.284332   40.980442   46.223579
H   55.037647   56.742584   99.417976
H   57.758904   26.563894   78.107857
H   40.254932   69.800240   49.035847
H   45.903492   61.958500   29.894062
H   44.707603   96.782173   47.289055
H   42.679749   73.455917   68.830711
H   65.158539   64.834030   97.954399
H    9.430103   88.663879   90.034355
H   76.255470   61.292965   51.351746
H   33.745274    7.137371   48.183666
H   76.129295   31.875980    3.499703
H    9.883456    1.119787   75.977234
H   13.572884   53.852631   60.735119
H   63.472412   43.526424   54.030193
H   59.300793   60.853600   80.743942
H   46.031849   36.675941    9.700705
H   12.427571    1.738100    2.642009
H   63.690887   56.984619   78.202698
H   53.946125   84.450012   83.442474
H   43.651058   23.061483   35.552639
H   65.176308   34.613544   37.232468
H   11.237973   20.150284   71.241577
H   58.963760   22.054430    9.814719
H   11.896466   64.471062   62.307289
H   74.917053   97.583138   52.211098
H   23.631340   30.887066   47.971363
H   94.059372   28.173462   36.859295
H   26.427319   10.467260   90.414612
H   79.384094    5.621927   35.976158
H   46.197487   65.484253   57.455044
H   37.653622   77.497208   90.452164
H   71.236626   74.568253   74.220810
H   71.484344   95.044067   99.278442
H    0.876501   47.655449   23.285786
H   35.428017   52.889912   86.866135
H    1.721139    9.199905   64.867416
H   75.627144   21.402811   69.146538
H   86.348099   54.444374   86.370895
H   81.436073   85.153580   41.742550
H   19.207497   30.104824   69.579659
H   65.681183   90.166794    6.050238
H   51.459145   25.218487   77.153496
H   85.510033   88.377754   78.400955
H   99.239494   36.215332   83.949196
H   31.317207    4.541697   99.242996
H   90.469093   67.182198   25.491556
H    6.647337   61.168945   66.531982
H   49.595387   58.278751   65.690384
H   47.772499   31.057430   79.308601
H   47.661114   84.902023   24.637125
H    4.078259   17.500235   57.783306
H   35.121037   63.491169   33.293129
H   84.928925   54.300003   21.819555
H   75.325699   10.380992   29.580072
H    9.454633   85.532143    3.433022
H   28.938553   97.426056   46.994915
H   11.926645   11.609097   78.061790
H    8.018167   35.026619   97.762688
