100
TIME:    2.238, STEP:  2238
H   65.975494   16.785202   97.097061
H   39.016243   26.085157   19.172262
H   18.224020   34.914200   97.064857
H   81.852249   40.445274   17.490379
H   75.125488   52.143085    5.023981
H   93.313484   98.783501    0.381936
H   35.677013   12.457375   65.467369
H   43.983910   82.217224    2.707575
H   98.613625   71.118790   59.214100
H   13.682009   48.517723   95.326195
H   92.081726   56.293262   24.174322
H   70.423950   35.869888   33.625221
H    0.903880   26.305443    2.690400
H   44.268669   98.177711   27.552814
H    7.721999   70.120087   43.194069
H   11.539211   15.985602   47.268326
H   44.135590   29.999519   77.117676
H   48.969696   85.866585   21.958168
H   80.121422   72.241531   81.268707
H   32.222855   58.285610   68.706093
H   31.470535   33.417515   96.501129
H   76.939590   47.054962   28.691879
H   55.863503   76.420708   68.318375
H   11.107109   63.523014   40.861053
H   49.539787    8.680748   53.074219
H   36.397160   60.921276   79.403877
H   69.094460   49.447109   44.377018
H   43.705772   60.901989   40.748287
H   59.833969   52.140694   51.380455
H   86.808662   35.449692   61.303097
H    4.138804   22.739073   32.319035
H    7.065906   90.679436   92.081215
H   27.998970    4.739959   99.413666
H   72.661919   68.623428   77.467941
H   25.141777   89.744385   61.005585
H   67.139908   60.291927   12.946435
H   94.452545   22.576021   84.811035
H   71.489037   17.992321   80.370583
H   50.607498   32.653076   27.433111
H   52.398319    2.668691   14.114962
H   82.298393   32.974903   95.070847
H   30.482513   12.299535    7.944791
H   30.518042   76.920563   63.125237
H   36.447243   50.280403   99.554123
H   62.524601   43.589962   47.623024
H   49.214275    5.603199   92.257484
H   59.214375   46.548126   46.939140
H   56.358936   18.425653    7.052649
H   30.448927   47.097652   55.200935
H   72.824608   64.812782   27.136066
H   43.373875   53.579216   77.013962
H   13.895514   56.070118   27.141270
H   55.304611   34.985413   72.891167
H   24.866711   70.694405   30.572420
H   62.594223   54.700726   19.396437
H   96.366470   10.179918   16.440002
H   38.130901   24.970711   68.839851
H   59.410736   65.536118   55.910233
H   66.782082   33.330364   39.670830
H   11.334600   99.807037   99.956551
H    0.874982   74.493477   39.903355
H   19.481510    7.112543   94.091217
H   26.034557   54.538643   80.022629
H   96.718445   53.968658   66.382057
H   21.151428   82.098999    3.981393
H   63.861366   31.015327   78.513374
H    8.009340   25.736814   75.112747
H   25.771965   45.531189   73.191940
H   68.445366   88.977928   19.868477
H   75.724426   60.709534   97.020538
H   50.966225   43.126442   35.305035
H   89.433899   77.250153   20.477179
H   61.069946    7.606915    4.362064
H   80.938713    7.753865   70.197563
H   70.073143   31.828108   71.053452
H   78.567070   51.008209   45.340214
H   70.151642   32.571678   30.629957
H   37.125637    4.382823   38.036709
H   68.831268   46.945019   42.647751
H   89.769539   87.067993   28.115395
H   54.678051   52.434795   13.748974
H    9.242298   58.843399   99.636818
H   59.401257   44.611877   43.058262
H    4.123570    3.670138   59.013275
H   43.357849    8.895199   30.803345
H   99.780457   91.259895   97.196632
H   16.625692   40.632095   30.259886
H   91.982544   26.114685   72.473457
H    2.126464   69.563957    9.890036
H   68.470047   17.197113    4.221960
H   15.610840   94.277512   80.724197
H   43.878345   63.822544   76.165306
H   28.877907   94.691635   92.052689
H   63.539982   48.984585   77.714790
H   17.897526   49.263817   67.513603
H   78.771194    7.355595   51.853394
H   84.960648   96.114906    8.479944
H   15.082309   35.292908   20.226852
H    2.100403   46.497433   57.582878
H   78.228683   21.218166   82.134186
