100
TIME:    6.274, STEP:  6274
H   93.037674   46.664360   93.401993
H   27.202148   44.843472   73.702187
H   87.609406   25.280331   49.697102
H   82.529678   74.161285   96.262939
H   38.975403   75.646194   95.592163
H   30.727291   94.411003    0.081139
H   24.150318   84.988167   81.088051
H   26.762268   31.382641   32.136013
H   99.400978   83.073807    5.160295
H    3.394541    6.469174   53.370213
H   16.662827   18.690298   35.406250
H   16.378899   38.173679   46.338554
H   43.709885   82.188988    1.605400
H   44.429543   85.737648   34.694454
H   56.810005    9.608215   49.185253
H   49.260284   62.982033   12.244021
H   19.589485   96.947914   44.535316
H   35.233646   89.546356   82.035683
H   42.985485   41.556084   93.901581
H   23.485283   72.575233   43.495689
H   91.968674   31.620869   86.955864
H   63.874832   52.412811   84.989243
H    1.975444   43.596184   52.844284
H   36.112751   11.883516   41.111706
H    5.190669   88.599991   82.874794
H   17.945890   41.184753    0.438977
H   21.064495   81.674881   24.452620
H    3.160413   49.288811   74.159470
H   47.593163   18.318428   60.596649
H   41.565571   35.558464   82.153824
H   62.979027   84.657158   13.000023
H   61.901432   79.166809   18.448418
H   12.288828    9.446924   63.008423
H   43.193672   98.748154    7.438179
H   24.813751   84.640236    6.765294
H   18.025785   76.835213   99.700752
H   81.556953   74.767700    2.832075
H    4.677769   44.137142   65.178993
H   80.245300   44.716057   36.314735
H   72.252075   24.832176   31.659338
H    6.468584   71.457436   90.158424
H   71.475403   66.206635    0.259247
H   65.281342    1.123666   54.650909
H   78.727097   17.951681   94.174522
H   12.433094   84.351852   92.993027
H   97.139610   82.583786    8.650023
H   90.750290   66.039444   85.689323
H   56.574482   59.990143   56.777485
H   48.423630   12.837784   94.201004
H   57.465023   26.226278   44.854073
H   43.070789   63.929321   19.564651
H   10.037844   81.559341   62.187111
H   39.014256   58.387512   38.484646
H   31.400414    4.834245    8.671100
H   41.250084    8.427901   53.712818
H    1.410019    5.934084   79.045029
H   93.996819    8.512986   52.697090
H   58.880524   84.385445   51.952011
H   85.093872    3.860804   29.827568
H   44.998917   10.027905   85.163109
H   55.469532   86.801651   25.225773
H   76.241402   69.544571   11.474336
H    0.001762   79.156410    3.243439
H   73.864853   75.940247   56.803272
H   81.349243   59.751225   79.839134
H   15.925003   30.373833   17.151686
H   84.193466   65.268219   69.970840
H   46.977730   76.353859   66.136078
H   69.598854   98.976715   66.739685
H   57.492889   63.707893   88.521881
H   22.804947   68.518112   86.887886
H   56.646328   43.303223   15.974322
H   97.914139    7.969742    0.880193
H   92.095177   52.336941   30.373175
H   64.663933   37.585796   77.009659
H   73.981026    9.676891   73.768005
H   36.596279   82.770164    2.011834
H   26.744259   40.478935   60.930855
H   62.372196   35.090008   87.680595
H   91.842575   67.245155   80.410515
H   33.644905   94.189072   54.971134
H   12.093393   85.158676   62.120632
H   14.718843   12.041869   27.447372
H   81.790398   49.039085   90.384392
H   46.837791   56.443970   39.558380
H    6.892186   39.508614   77.468750
H   86.180992   47.181877   22.712011
H   56.932182    3.021505   30.526184
H   85.885849   44.845573   76.877571
H   11.632464   51.147930   48.496475
H   80.780571   12.210213   65.957199
H   42.511364   67.344101   53.068764
H   87.629059   15.769773    4.182628
H   53.624546   93.809517   49.845154
H   48.118782   87.742722   60.255833
H   12.128310   47.977814   43.388779
H   64.601707   27.731760   76.365753
H   26.167055   96.896866   52.929649
H    9.834170   63.895046   19.523575
H   28.913507   17.634281   93.345818
