100
TIME:    3.590, STEP:  3590
H   74.545319   92.800110   95.859268
H    1.407187   99.388046    4.456081
H   41.463585   32.182426   81.200478
H   82.079178   84.741631   43.383297
H   63.015747   60.511837   68.365036
H   72.353523   97.318779   34.275566
H   64.816673    3.750694   71.195610
H   37.719376   99.183304   78.572411
H   65.378883   41.129593   74.110115
H   76.735802   67.930443   48.271713
H   66.321976   10.693905   93.942665
H   18.819580    3.638923   37.388451
H   14.902869   44.507477   68.311424
H   77.325310   94.010475   30.440716
H   24.169151   49.353867   78.205116
H   57.178528   97.734428   35.040382
H   35.420784   19.421848    0.200211
H   77.856895   20.119148   75.084656
H    1.184182   28.958170   52.496204
H   95.799614   29.578691   60.756523
H   51.241028   98.820801   59.801750
H    6.557144   48.849762   13.556580
H   37.812355   65.424980   29.637028
H   85.491585   79.738098   40.449123
H    1.185872    1.453468   63.052773
H   30.196379   20.639975   52.679611
H   52.509708   93.244583   71.203407
H   29.628389   24.008759   85.437981
H   89.231552   74.804947   87.471535
H   38.649124    1.986942   68.783325
H   57.346004   43.977573   25.349571
H   92.432106   53.321671   66.919777
H   23.231878    5.821199   21.212507
H   29.788040   44.720619   20.509876
H   91.532822   87.543541   43.333656
H   84.695152   66.499664    8.294805
H   24.127052   73.061996   91.343376
H   15.611600   93.249977   75.777199
H   93.536682    3.198648   96.414940
H   25.055897   76.099960   20.487608
H   89.901108   79.364609   26.924543
H    8.972435   72.980652   71.462570
H   42.163609   85.028107   60.782009
H   50.112976   72.938263   31.745428
H   45.249462   90.248779   63.316830
H   31.771709   31.390553   97.745033
H   69.781540   20.074322   59.925652
H   56.431141   32.345795   90.706810
H   69.967026   35.125580    1.266374
H    1.170482   85.380775   32.574993
H   43.270725   23.052349   91.269211
H   79.600266   30.613735   38.385471
H   83.343819   42.824768   94.367500
H   93.558739   48.633873   90.233917
H   54.952286   73.204041   30.881136
H   98.058121    8.758078   70.414734
H   23.842554   85.958611   97.426216
H   58.737297   37.856720   21.085373
H   73.411781   90.454514   35.876743
H   22.116280    3.726470   61.502449
H   86.160347   11.621274   34.491062
H   71.498497   94.526871   32.918373
H   17.784983   62.308037   87.293388
H   89.558342   61.323212   29.671848
H   74.816948   74.117317   29.890558
H   80.805855   63.803291   58.452621
H   99.535599   72.476379   40.388103
H   32.380043   22.853411   37.825359
H   35.827553   91.831833   35.074184
H    3.120254   28.708761   94.173615
H    8.033037   51.136421   19.083740
H   77.954758   32.380157   19.464325
H   72.916672   40.729595   69.702629
H   51.183590   22.196705   89.848900
H   35.260052   33.756542   73.544228
H   10.525552   37.657959   54.367214
H   92.903542   15.388924   54.540287
H    0.645053   15.978815   12.701258
H   33.666153   42.973766   57.738510
H   23.465096   13.434158   11.639456
H   81.129196   66.421860   94.555130
H   10.685666   67.672989   86.583618
H   44.938259   67.180969   71.829681
H   97.136795   19.363029   35.525696
H   77.525894   24.327618   99.742294
H   68.670593   40.921242   91.083588
H    6.922720   42.330681   94.728271
H   13.743814   17.870056   58.407982
H   30.187275   94.287193   98.829231
H   48.934734   61.575310   52.549896
H   70.940186   67.279778    9.276040
H   43.918007   65.492729    1.931771
H   15.580256   35.235077   96.624657
H   94.214485   30.992298   68.872704
H   94.520332   28.159237   98.582207
H   90.440842   53.965828   82.020653
H   77.645172   73.703392   30.725645
H   20.044271   46.804382   98.592812
H   37.693993   52.325375   44.337219
H   62.198170   86.508247   51.904236
