100
TIME:    5.378, STEP:  5378
H   53.630043   28.831379   94.222305
H   51.947578   96.288757   17.205231
H   72.201202   60.818756   60.217609
H   82.379288   11.076363   45.376930
H   47.000793    3.827886   19.885357
H   44.624752   95.381706   11.347321
H   71.107979   24.485653   11.019685
H   97.186096   53.866482   14.403235
H   21.426430   69.220596   61.562317
H   27.873037   93.603477   18.285627
H    0.006578   82.638168   21.713654
H   50.579094   93.262169   10.117392
H    0.885659   36.372658   90.636650
H   88.794777   88.499367   66.509361
H   45.915932   89.643082   92.256439
H   85.285675   41.349564   86.619843
H   91.640266   37.683369   62.968903
H   16.072515   33.143261   13.096758
H   29.032608    3.965358   46.695103
H   47.622978   91.606483   82.491890
H   45.138573   20.820206   11.276527
H   77.974442   51.223358   61.291901
H   13.939685   50.883293   78.479050
H   19.363903    1.164766    7.655575
H   37.235260   59.658470   76.257607
H   22.030363   67.673065   84.694794
H   98.327576   18.919395    6.673179
H   78.761391    7.466545   44.541695
H   28.110741   37.025913    2.951928
H    7.210181   57.734245   10.924366
H   27.712841    4.311696   83.888695
H    5.327496    3.925622    1.395674
H   49.176853   75.002388   82.289665
H    5.334325   80.861168   45.184013
H   47.089279   52.384567   52.209854
H   40.137638    6.656453    2.518419
H   95.619446    7.580936   32.230572
H   41.709019   60.536556    1.952983
H   18.064388   64.239494   23.143965
H   56.645245    8.712563   61.165333
H   67.703506   40.714569   69.049049
H   48.276482   53.226379   55.458958
H   57.564701   95.750214   89.932655
H   35.939983    2.912330    6.568802
H   90.154030   19.704247   16.320448
H    8.702963   65.493942    5.009886
H   83.750290   17.311852   77.089714
H   56.526630   50.761627    1.338117
H   22.235153   87.044006   29.942871
H   38.670574   12.587950    7.520661
H   43.134312   50.432480   10.119740
H   66.493202   64.702179   21.005867
H   20.427341   53.192200   90.523155
H   52.147484   19.455009   69.132774
H   12.590439   29.906893   46.090748
H    0.293994    6.876589    9.546997
H   37.193405   34.366997   67.479988
H   25.598366   69.001900   75.030136
H   14.428709   66.002861   98.610771
H    4.127216   41.159489   10.647469
H   98.948547   28.470531   95.085258
H    8.041479   77.884415   52.018089
H   39.172802   40.298386   64.684845
H   12.336768   71.059387   81.127563
H   45.785194   31.311821   96.398369
H   70.966972   74.916801   64.172661
H   56.081635   34.294308   26.712608
H    8.870553   25.111208   23.302099
H   24.940535   63.357552   22.933418
H   39.343475   18.639572   90.408600
H   51.257225   29.481445   97.633980
H   30.526741   73.039551   50.374390
H   56.335846   52.287125   23.855721
H   11.819683    9.045815   83.611351
H   21.466707   36.307476    9.086632
H   52.799675   52.252930   34.058559
H   55.243153   60.417843   86.160957
H   84.648544   99.065666   11.445662
H   19.408329   37.721844   77.686455
H   35.779579   16.053192   57.601715
H   16.110727   84.919540    1.419907
H   44.844948   79.347992   37.071426
H   58.046547   97.058533   42.117558
H   20.148115   72.366135   72.219147
H   90.464745   12.487084   26.415504
H   27.516163    6.596213   15.248027
H   26.339193   12.328522   79.987274
H   42.522026   74.721252   39.816223
H   67.292099   94.734245   84.205696
H   90.851044   88.009689   16.468451
H   44.112602   63.826443   47.035320
H   76.216438   99.956741   35.999428
H   30.193514   88.886909   34.893574
H   67.030098   39.450146   89.429482
H   63.609016   68.002007   39.665989
H   38.122360   83.360626   89.668076
H   35.721642   76.313148   27.895584
H   26.605764   62.028137   69.973244
H   52.517517   60.032742   94.572548
H   73.258392   40.625675   79.661179
