100
TIME:    1.662, STEP:  1662
H    4.928421   69.607468   97.624405
H   55.038704   94.855644   82.838737
H    8.323141   93.475441    3.825477
H   81.755569   64.175743   49.064075
H   80.284668    5.974141   20.640720
H    2.243825   99.407524   43.339314
H   65.863319   73.564613   20.423424
H   89.256371   32.386028   55.595482
H   12.772865   26.498978   95.469566
H   29.421022   40.247215   72.773460
H   45.659836   33.116505   79.656830
H   92.405396    6.998163   74.626198
H   37.542603   61.154076   59.938873
H   72.789177   99.953102   83.719017
H    0.715336   21.570595   70.882919
H   34.699493   66.366508   95.080826
H   90.445160   91.907700   24.676329
H   36.660614   13.877754   41.928024
H   71.147789   48.077499   50.921970
H   47.739944   70.517929   29.489298
H   65.651199   90.759705   12.135147
H   21.711369   46.293587   77.739174
H   63.553932   81.105278   84.797867
H   64.623711   56.614811   83.639801
H   70.141350   54.361900   48.824707
H   39.038273   78.085526   33.393410
H   18.762299   73.391190   32.946842
H   92.307449   34.016247   21.708822
H   47.309555   99.881958   78.608971
H   64.721748   49.705551   15.512870
H   81.480110   71.084808   77.896057
H   70.696899    6.594835   45.404396
H   87.426712   46.882133   47.523041
H   48.325005   21.410225    1.734442
H   39.460213   33.285805   25.932831
H   17.059170   15.042261   14.926171
H   39.206474   43.670753   39.424320
H   95.298607   28.534801   39.723797
H   76.004074   45.029198   82.832275
H    6.651972   56.593060   68.797867
H   21.662186   13.210608   81.500534
H   82.250092   86.449165   80.883713
H   25.556616   73.466461   21.521656
H   73.229469   40.625618   43.235432
H   12.489719   66.314529   98.331497
H   56.645428   94.616890   89.919594
H   53.629261   15.395524   41.824898
H   56.328175   12.495234   71.413078
H   13.613477   94.803123   78.177231
H   60.747250   56.046101   67.421104
H   43.417820    9.187963   70.940720
H   85.903435    9.517530   64.956100
H   43.355881   31.645569    6.342781
H   38.204113   80.089912    5.156649
H    8.447538    4.204337   14.509382
H   95.645767   10.785265   36.048401
H    1.616308   41.590828   14.057585
H    2.301313   19.932190   70.746170
H   21.355545    8.991689   83.891022
H   49.343037   55.535686   16.338341
H   64.540970    1.282378   84.813103
H   39.923523   12.474970   20.153679
H   86.965286   93.816963   19.538673
H   57.166901   50.835358   82.017799
H   98.288902   28.102585   50.340466
H   99.246132   59.650093   44.455761
H   54.223373    5.823498   47.304150
H   65.560051   12.588490   45.655811
H   39.736572   30.365601   55.995918
H   64.052551   31.736410   98.233429
H   69.256264   82.318062   42.214359
H   36.927692   96.366364   78.306114
H   98.625610   36.096661   19.132084
H   93.612541   44.205284    4.430992
H   42.303139   31.008528   27.389153
H   64.952812   14.090818   84.097862
H   17.853437   82.496323   20.441236
H   10.064113   42.046791    6.225003
H   41.217392   48.633640   36.221794
H   18.018051   18.437475   77.738441
H   43.406078   46.475811   79.322685
H   66.025772   55.081680   47.802322
H   22.957409   34.996643   88.197235
H   64.502083   54.381084   11.624611
H   71.403748   44.925743   86.640259
H   13.038357   70.104622   57.197609
H   78.155937   82.511978    2.793629
H   82.710083   72.230896   78.467567
H   90.173042    1.635176   14.602072
H   19.395039   40.896820   83.629799
H   92.038399   63.173138   68.560135
H    1.258147   20.504057   65.187767
H   91.921593   77.429916   47.492142
H    7.865824   14.044797   38.878769
H   27.857731    0.856938   54.277275
H   31.195999   30.099909   81.604370
H   30.680256   63.059246   41.606171
H   12.967441   30.388611   29.444382
H   29.538216   44.014523    5.833773
H   42.457199   36.012951   37.611763
