100
TIME:    1.459, STEP:  1459
H   18.656187   88.223648   97.810257
H   60.685509   83.850105   70.033531
H    4.833617   78.870567    6.208671
H   81.721497   72.539085   60.191967
H   82.102921   89.702812   26.144753
H    5.391834   99.627449   23.235106
H   76.503349   59.857555    4.548519
H    5.211777   14.824532   74.234047
H   17.762993   46.016541    8.247642
H   34.968346   37.332436   64.825188
H   64.542404   24.948307   99.211563
H    0.152356   96.823021   89.076195
H   50.454674   73.435799   80.115898
H   82.840675    0.578945   68.271614
H   98.246422   39.702457   80.640152
H   42.861496   84.121574   11.931231
H    6.766077   78.482986    6.194274
H   32.322517   23.749680   48.965622
H   67.985207   39.560829   40.227734
H   53.208641   74.829697   15.668100
H   77.697510   10.968803   17.644886
H    2.246190   46.025650   95.023415
H   66.264275   82.756264   90.605743
H   83.484596   54.180149   98.715500
H   77.401970   70.461952   47.327049
H   39.969082   84.135010   52.420013
H   36.267426   81.828873   28.918501
H    9.436050   24.540890   14.998790
H   42.895569   81.464020   88.205132
H   56.937649   54.729752   99.375389
H   73.494667   52.880600   93.959869
H   57.879307   12.203259   64.197136
H   73.128494   61.734810   29.235197
H   39.747932   40.014015   10.286230
H   44.506096   48.630989   13.572121
H   99.408691   99.095352   15.623912
H   19.736435   51.104836   23.428656
H    3.689304   32.250294   25.399250
H   85.129410   49.362648    2.288036
H   25.772276   75.597038   52.825893
H   35.534492    6.245077   76.717941
H    0.494573   77.339317   71.346405
H   23.808058   72.249130    6.858930
H   86.192650   37.222977   23.387644
H   30.098427   74.324753   80.960526
H   59.264393   90.744972   89.095650
H   51.485767    4.444517   40.090279
H   56.317333   10.405172   58.852581
H    7.680140   11.615532   86.274185
H   56.489689   52.956310   81.620201
H   43.433308   28.786837   68.800323
H   76.037788   28.354410   78.281693
H   39.144783   30.468506   18.132771
H   42.904621   83.401176   96.198990
H   24.608742   86.408783   12.786766
H   95.391769   10.998608   42.959000
H   88.746201   47.448265   94.750389
H   17.417160   39.103432   75.974808
H    5.345939    0.414190   99.474716
H   62.738323   39.931858   22.112144
H   51.735760   10.722501    0.641451
H   47.128387   14.364853   29.339417
H   73.196747    7.660165   33.465187
H   43.226448   49.731087   87.528313
H   90.232216   44.316441   31.434690
H   11.716541   69.741859   32.452816
H   70.510208   98.805298   37.503551
H   79.582588    0.978250   35.951237
H   29.618477   44.951889   68.727760
H   59.940552   21.526163   98.660889
H   75.702232   96.129967   44.649021
H   53.665218    3.103682   63.444084
H   11.861980   46.137318   24.337490
H   98.079185   57.052307   16.495888
H   32.516479   30.719683   11.999828
H   60.153492    1.080298   97.757988
H   99.422295    0.090326   16.850397
H    0.526797   55.321274   95.014313
H   31.486490   49.228367   33.957497
H   27.973526   29.493349   95.227119
H   39.433491   44.375683   67.189644
H   50.793858   53.755936   64.776810
H   10.113326   31.608030   68.862427
H   50.536907   37.010113   30.166451
H   81.287979   57.624084    6.318787
H   17.710987   62.648579   43.100731
H   64.598030   97.271729   93.113754
H   79.442184   88.483658   80.576988
H   85.960396   12.937671   16.262798
H   37.343155   49.249321   76.372276
H   83.730812   52.212513   64.273148
H   86.238182    5.237085   61.320023
H   78.896461   71.346359   31.787634
H   88.245522    1.731243   25.191929
H   31.368011   19.040939   49.612389
H   14.429047   38.116142   92.089523
H   46.793564   51.409420   53.280777
H   12.222096   28.660187   32.692757
H   39.208519   43.139469   22.837711
H   29.850235   41.227650   57.163399
