100
TIME:    9.308, STEP:  9308
H   87.860260   68.433662   90.624283
H   43.411453    9.249998   65.005608
H   39.766850   43.558342   14.078484
H   83.038925   49.161369   29.958975
H   11.791536   18.834229   13.328093
H   83.678223   91.124046    0.547933
H   65.136040   89.858360   18.350903
H   88.295853   93.862656   53.564812
H   24.819466   91.365616   14.181398
H   20.524130   50.034092   72.166573
H   34.447540   40.768524   43.153984
H    0.578773   90.252693   30.374943
H   50.209427   98.588310    0.104527
H   94.205460   76.386024   65.584175
H   93.660957   38.596382    3.280080
H   27.269173   97.617111   60.395569
H   75.612984   97.623497   20.732313
H    0.112832   41.911552   76.864334
H   90.242554   68.837036   53.741962
H   41.740971    8.148146   50.064507
H   11.926664   29.576586    4.608935
H   54.747372   56.440491   26.616074
H   61.466988   18.926996   66.037643
H   54.211079   48.178925   15.780861
H   96.677719   47.990143    5.279121
H    3.717676   51.703659   14.957376
H   59.440628   55.555897   84.651535
H   47.159302   90.905685   74.446800
H   13.564694   93.586845   17.177856
H   57.902885   60.466476   23.347683
H   82.384499   56.721401   72.959763
H   53.470081   95.343109   37.575874
H   25.999954   87.465149   36.335106
H   71.387161   20.699921   79.620522
H   49.305397   54.923775   91.358643
H   81.766190   14.474969   90.163948
H   72.556671   63.656013   41.899250
H   79.274345   88.612404   79.280525
H   52.179737   78.612144   42.297775
H   86.483749   40.799629   70.369644
H   99.116165   75.561218   61.636929
H   15.786493   78.104492   55.149632
H   91.391815   19.324703   73.798576
H   85.000893   68.883827   90.820992
H   49.255386   64.658562   52.624065
H   57.977463   40.446667   20.976110
H   14.463262   31.039751   14.817780
H   56.755733   91.239380   44.503452
H   37.111664   61.560627   73.175537
H   21.158552   72.411369   32.717159
H   43.109791   71.035667   51.171219
H   57.497997    0.025287   63.023811
H    1.939086   75.979675   62.280045
H   61.135651   55.338951   42.551949
H   99.677589   74.314056   79.508453
H    5.188862    2.742611   75.760498
H   86.338760   20.968330   41.255775
H   32.962585   97.861000   73.802147
H   24.381027   32.065506   96.909904
H   44.786228   43.232494   98.868935
H   46.858463   45.705517   88.673912
H   68.558800   41.304520   74.198845
H    5.980318   72.121727   95.192963
H   82.203979   92.467621   74.429062
H    1.772564   17.428440   62.382206
H   29.543739   79.545403   96.545967
H   40.770584   70.161804   16.452335
H   37.398636   49.872200   11.178833
H   20.810862   80.972824   76.451904
H   19.065628   16.161982   82.101501
H   26.454376   62.083286   50.499886
H    6.776473   42.538475   38.318439
H    0.092865   57.897175   23.091763
H   25.304668   60.315426   50.103554
H   10.846929   42.020771    7.040452
H   45.705940    4.127829   69.617935
H   12.147630   20.168987   55.823837
H   69.278801   42.100395   28.495895
H    7.866933   26.178188   21.534388
H   43.051903    1.967880   19.028587
H   93.035103   25.577890   36.309898
H   39.760757    4.839096    8.296976
H    6.624809   62.780918   16.389530
H   90.524651    8.664726   13.275902
H   99.109207   66.647568   45.447388
H   37.068142   50.953430   88.158875
H   88.815117   26.584740   67.384529
H    5.726857   60.240639   99.069244
H   48.852787   75.917870   52.063362
H   43.386814   26.319687   56.953346
H    4.944544   76.034378   30.030052
H   66.996643   95.530365   10.882997
H   82.114319    6.800009   38.806511
H   46.599586   77.858871   54.800579
H   95.659714   15.975262   29.972696
H   62.724228   28.168768   86.678467
H   23.776970    1.845940    1.876148
H   20.310717   47.019650   92.019249
H   65.301384   76.996391   65.396019
H   17.367790   39.775928    1.070140
