100
TIME:    1.109, STEP:  1109
H   42.324867   20.320259   98.130692
H   70.421379   64.875038   47.955593
H   98.818604   53.689754   10.318390
H   81.662750   86.958641   79.375847
H   85.237839   61.648766   35.634956
H   10.819355    0.006663   88.573570
H   94.848228   36.222836   77.178017
H   32.721085   84.544510    6.368692
H   26.366661   79.667511   30.279089
H   44.533318   32.306953   51.118759
H   97.098557   10.865451   32.925262
H   13.511768   79.279228   13.989317
H   72.717911   94.611183   14.903607
H    0.170834    1.657992   41.635921
H   93.989983   70.964111   97.462967
H   56.933914   14.735027   40.983871
H   34.904579   55.336929   74.327202
H   24.843040   40.770096   61.099411
H   62.533195   24.876917   21.789392
H   62.637428   82.263779   91.838554
H   98.467010   45.813393   27.144436
H   68.685966   45.563690   24.825779
H   70.937279   85.602791    0.619370
H   16.003448   49.982456   24.710289
H   89.920280   98.222267   44.744881
H   41.573925   94.565155   85.226227
H   66.449478   96.376602   21.973082
H   38.966766    8.203748    3.429891
H   35.285248   49.708958    4.749938
H   43.516781   63.392166   71.550987
H   59.726658   21.493586   21.655125
H   35.780003   21.872635   96.598412
H   48.474712   87.342873   97.704430
H   24.959877   72.089516   25.030485
H   53.205894   75.088203   92.259567
H   68.978088   71.602066   16.828421
H   86.166435   63.922218   95.850288
H   18.154823   38.656315    0.701440
H    0.862849   56.834114   35.834641
H   58.737236    8.361986   25.287539
H   59.452263   94.234978   68.472092
H   31.950584   61.632278   54.902775
H   20.793303   70.150284   81.577095
H    8.542570   31.356501   89.166145
H   60.457016   88.135483   51.009415
H   63.779850   84.069252   87.675056
H   47.790089   85.565033   37.099556
H   56.298641    6.801618   37.196545
H   97.449394   40.601509    0.234482
H   49.149067   47.629086    6.100789
H   43.460011   62.576790   65.109985
H   59.028053   60.832973    1.256993
H   31.884272   28.439087   38.460762
H   51.008945   89.110252   80.754044
H   52.473198   55.726452    9.816738
H   94.953842   11.366440   54.873825
H   66.556107   57.547295   61.462578
H   43.479919   72.156258   84.989700
H   77.740990   85.626114   26.344471
H   85.836166   13.028708   32.066978
H   29.657675   26.998123   27.929497
H   59.550568   17.622940   45.176895
H   49.456253   31.528530   57.476418
H   19.191896   47.827171   97.029198
H   76.341377   72.270897   98.839867
H   33.217567   87.141457   11.758223
H   98.590958   86.703552   20.605068
H    3.759480   80.961716   19.219213
H   12.173632   70.100662   90.677528
H   52.850937    3.921908   99.397888
H   86.815971   19.944719   48.846714
H   82.524734   14.720102   37.817329
H   34.683441   63.448795   33.312328
H    5.781869   79.200516   37.297432
H   15.641650   30.221674   85.467339
H   51.878269   78.649803   21.308357
H   67.645866   30.426069   10.657423
H   84.083160   78.206657   75.686768
H   14.709070   50.253757   30.054203
H   45.138138   48.556358   25.379730
H   32.584202   40.754772   46.270611
H   24.531956   51.470169   94.043167
H   87.966682   25.766775   35.526554
H   26.458921    7.060158   62.135139
H   98.329758   79.515884   40.247276
H   25.767246   49.791142   18.795769
H   41.222328   22.719597   76.424454
H   73.807877   16.505249   84.213921
H   78.697212   32.424232   19.126682
H   68.287155   63.650185   63.859310
H   69.407387   33.314884   56.881786
H   60.341724   78.913643   54.652313
H   56.439339   60.858269    4.709856
H   54.417557   80.502327    1.593348
H   37.419025   50.392792   41.569481
H   85.520416   51.937553   10.167715
H   74.575241   31.323515   73.409409
H   10.937020   25.680145   38.292351
H   55.881798   41.630756   52.154804
H    8.114090   50.218510   90.873116
