100
TIME:    4.245, STEP:  4245
H   30.249763   32.733124   95.259598
H   83.239235   34.894234   45.767021
H   52.722397   79.306526   73.514702
H   82.189117   57.756462    7.479451
H   57.148972   13.012973   50.604797
H   62.198215   96.609169   99.142204
H   30.490311   47.981098   22.417536
H   86.237663   55.847523   18.431675
H   49.277733   78.153900   32.879002
H   58.835640   77.335274   73.920685
H    5.395462   37.049168   30.849926
H   93.819588   36.470406   90.765709
H   73.184921    4.886127    3.217559
H   44.893135   91.991585   80.286682
H   32.137230   90.847137   46.719677
H   30.842892   40.445915   80.668884
H   82.749428   62.743038   59.827446
H   91.849205   88.266182   52.374577
H   11.385670   56.438065   87.005569
H   78.149315   15.668837    5.351945
H   12.372391   33.614307   42.026520
H   69.352631   49.719284   57.777313
H   29.067162   60.097908   10.895169
H   24.635033   87.593781   91.802032
H   77.758820   49.510475   67.890114
H   27.195215    1.160601   91.238060
H   96.027504   66.019547   84.196266
H   74.360474   54.581955    7.087307
H    3.473956   34.231258   56.508553
H   63.765320   85.775719   20.853783
H   83.123131    2.713417   73.528053
H   33.788982   35.226616    6.283122
H   69.370461   57.897774   80.220078
H   57.463028   84.693878   92.916756
H   75.251770   38.030754   83.219147
H   41.647953   17.915836    6.082603
H   86.949661   49.075180   42.954639
H   88.538658   81.266563   21.999744
H   65.891876   88.927055   32.939827
H   63.360901   14.780324   72.022949
H   45.135712    1.841888   42.356060
H   50.104721    2.374843    2.235542
H   47.805508   88.955948    8.095131
H    8.287382   83.912231   95.788574
H   88.433266   64.402985   19.366888
H   23.321354   43.883686    0.404198
H   74.898727   55.695580   66.215431
H   56.466122   39.092087   31.234444
H   89.116501   80.878571   75.140564
H   14.907931   95.345299   86.763649
H   43.220753   59.816216   98.175415
H   11.431875   69.835800   95.384735
H   96.926353   46.622681   56.327396
H   78.387077   37.944748   19.136391
H    2.801203   30.609842   36.452572
H   98.877670    8.068457   48.116989
H   65.364899   67.058998   59.722282
H    9.964259   75.999672    4.213020
H   25.070974   18.130386   85.592400
H   78.892136   54.073795   42.872688
H   27.478823   81.159447   83.422127
H   48.251274   88.430222    3.280108
H   62.254742   17.611797   42.378075
H   34.535767   64.887497   11.886623
H    0.812751   21.802525   90.887123
H   40.567970   31.241188   97.181335
H   46.984482   95.123932   72.010727
H   87.134468   60.313431   69.138145
H   68.473923   44.767700   93.992950
H   16.390440   61.655403   92.794373
H   87.233986    6.569754   11.225559
H   23.947777   10.641797   67.421959
H   30.210039    8.332401   52.908554
H   36.761517   80.748024   50.930290
H   66.838142   34.691029   23.198008
H   26.011599   79.638023   10.295366
H   52.373978   58.618954   66.123924
H   31.418148   73.151329   48.876259
H   65.074059   41.049824   65.048775
H   91.342285   77.762794   55.210655
H   93.942154   73.198135   33.702053
H   59.833519   71.950638   31.813711
H   86.377785   78.114960   34.215313
H   42.199120   75.412788   75.701279
H   45.633423   83.357628   36.247192
H   53.595425   64.982811   36.569000
H   50.668678   94.706833   25.961622
H   24.285521   65.429283   51.596725
H   43.780136   57.817238   93.472176
H   91.023392   34.625122   75.964584
H   97.745453    2.650127   23.108438
H   92.383438   14.746805   14.413298
H   57.566216   54.889275   47.276897
H   57.523975   70.724548   13.037580
H   83.196556   69.489159   13.632798
H   44.541199   28.100422   48.189247
H   25.654053   11.292359   93.054840
H   22.447950   52.381317   88.108574
H    6.491173   55.148823   89.473335
H    2.885275   69.697487   88.805756
