100
TIME:    1.567, STEP:  1567
H   11.352757   78.319473   97.711380
H   57.681297   89.705269   76.846153
H    6.690111   86.640648    4.940751
H   81.739624   68.089622   54.271709
H   81.135574   98.359489   23.216347
H    3.717011   99.510445   33.930782
H   70.842644   67.150200   12.994301
H   96.723183   24.167606   64.318336
H   15.108147   35.632812    1.449235
H   32.016869   38.883156   69.053825
H   54.496506   29.293949   88.808060
H   96.030807    2.236457   81.388512
H   43.585197   66.901680   69.381157
H   77.493080    0.245978   76.489937
H   99.559837   30.056103   75.449112
H   38.519150   74.675529    2.966536
H   98.083023   85.625198   16.027018
H   34.630470   18.497665   45.221481
H   69.667763   44.091866   45.917278
H   50.299187   72.535751   23.021250
H   71.288635    0.216815   14.713596
H   12.602109   46.168198   85.827858
H   64.822319   81.877907   87.515839
H   73.450233   55.475437   90.694931
H   73.539177   61.896118   48.123833
H   39.473873   80.916565   42.297485
H   26.954266   77.339859   31.061659
H    0.323629   29.581966   18.568659
H   45.243896   91.262726   83.099785
H   61.078945   52.056778    7.960895
H   77.743080   62.565598   85.413605
H   64.698517    9.219441   54.199028
H   80.735428   53.832893   38.964691
H   44.311104   30.116432    5.736500
H   41.821587   40.467049   20.148262
H    8.799073    7.579430   15.252690
H   30.095032   47.149757   31.938665
H   99.225533   30.273579   33.020191
H   80.274551   47.057167   91.937119
H   15.599897   65.486870   61.323544
H   28.154152    9.950854   79.262375
H   90.788147   82.185936   76.420441
H   24.738325   72.896774   14.659719
H   79.295982   39.033249   33.947216
H   20.730247   70.063156   90.202225
H   57.871052   92.804909   89.534004
H   52.626148   10.270698   41.013130
H   56.323101   11.517126   65.535011
H   10.836797    2.671234   81.966446
H   58.754795   54.600140   74.066002
H   43.425068   18.359850   69.939056
H   81.286507   18.332819   71.192215
H   41.385170   31.094727   11.860264
H   40.403858   81.639519    0.964784
H   16.010567   95.876251   13.703232
H   95.526901   10.885105   39.282425
H   95.593430   44.331993    5.022141
H    9.375107   28.904034   73.193069
H   13.863365    4.977606   91.183884
H   55.611767   48.233402   19.040367
H   58.548382    5.700170   92.220482
H   43.295258   13.359398   24.452423
H   80.521881    0.295170   26.056007
H   50.643044   50.318581   84.596611
H   94.518532   35.690250   41.492924
H    5.082058   64.372841   38.838619
H   61.845291    2.539191   42.717663
H   72.122322    7.155098   41.114262
H   35.001503   37.191696   61.954437
H   62.128204   26.958216   98.433472
H   72.272850   88.781761   43.353733
H   44.760525   99.519211   71.351006
H    4.819928   40.795490   21.568111
H   95.702843   50.217438   10.077126
H   37.723175   30.873354   20.187252
H   62.706989    8.002199   90.490532
H    9.228045   90.729965   18.760805
H    5.600840   48.258987    0.978346
H   36.663521   48.911961   35.162148
H   22.677017   23.611406   85.922798
H   41.546986   45.492992   73.644661
H   58.897648   54.461258   55.746048
H   16.946705   33.410797   79.148926
H   57.966686   46.251812   20.301826
H   76.029373   50.868317   95.849472
H   15.225056   66.615471   50.600548
H   71.811104   89.419250   98.263596
H   81.180771   79.836868   79.454735
H   88.201607    6.924510   15.379230
H   27.794296   44.805626   80.233421
H   88.150612   58.043781   66.553909
H   94.229088   13.359415   63.377487
H   85.826088   74.582932   40.142746
H   98.683632    8.282334   32.473778
H   29.500473    9.366653   52.094200
H   23.349396   33.851250   86.511215
H   38.220932   57.607357   47.069656
H   12.618634   29.579742   30.964634
H   34.063622   43.605015   13.791294
H   36.557388   38.453327   46.761543
