100
TIME:    6.626, STEP:  6626
H   69.232986   14.384787   93.079727
H   17.481812   63.918911   95.895546
H   93.662628   50.604683   45.564045
H   82.588760   59.659332   76.969971
H   35.822571    3.860505   86.047729
H   25.267574   94.029655   34.941013
H    5.702287    8.756105    8.614985
H   99.095757   61.834057   99.815804
H   90.748146   49.230545   83.004066
H   93.779823   11.523943   67.152443
H   83.920654   32.853870    1.500023
H    2.943121   55.817722   21.282978
H   21.247971   60.902950   66.628838
H   27.000729   84.652687   61.482784
H   61.085396   78.165855   32.258251
H   35.107452   32.194923   83.024902
H   91.283516   20.229717   76.579262
H   42.761234   72.417938   69.832558
H   48.466686   56.323906   12.446277
H   14.002617   65.098671   67.461510
H   71.080490   96.577484   77.400688
H   97.621414   52.880096   55.013168
H   97.275551   40.733391   42.773483
H    3.406647   16.094454   14.968756
H   92.601143   60.686096   85.474403
H   16.341276   30.778259   67.336952
H   90.711494   67.044022   31.437727
H   73.458481   65.718987   85.793259
H   55.246971   50.254375   43.957001
H   55.063129   26.846550   10.136814
H   76.831276   16.222115   85.150978
H   84.127014   69.439758   85.862068
H   37.083515   83.692924   94.719360
H   58.066231   66.489365   92.609131
H   16.053497   57.988869   28.182261
H   48.624294    4.405178   98.594307
H   15.318963   61.877075   30.568090
H   90.128090   37.694515   90.020302
H   65.388855   37.046135    2.204044
H   39.098331   91.879181   59.355366
H   82.411728   83.537025   98.451393
H   41.810852   67.587006   18.229465
H   68.310638    3.235310   80.076683
H   56.249996   23.859884   28.591124
H   81.898979   70.462204   23.115149
H   92.595665   89.297653   10.080076
H   93.500290   85.182022   89.067741
H   56.593281   63.615631   78.557266
H   58.711960   83.684608   80.160965
H   64.853271   31.585287   20.241678
H   43.046619   29.946329   23.274734
H   27.148571   48.896477   39.080666
H   46.316257   60.428528   18.040495
H   23.249779   99.090836   24.202961
H   13.222816   39.275917   56.707203
H    1.848434    5.563814   67.062119
H   16.312227   98.355751   86.175117
H   32.669586   51.143745   42.885605
H   12.856118   18.735500    2.805325
H   21.771622   37.084789   75.151390
H   77.673637   70.430557   97.781570
H   63.748238   66.268204   95.547455
H   23.899187   55.136879   79.105743
H   98.034775   77.857727   47.245411
H   95.319458   31.636253   12.619433
H   94.301941   12.874929   37.964676
H   55.952255   77.439117   86.964981
H   22.662788   96.484718   82.963715
H   87.140846   73.684235   44.662136
H   64.623253   81.411064   87.780670
H   11.626621   44.568405   82.666206
H   27.623419   31.621094   41.746681
H   74.963455   90.557892   91.856506
H   84.344688   30.060211    9.459478
H   81.636589   38.087994    3.693395
H   82.300850   32.236843   50.083061
H   68.565033   52.304287    8.254709
H   43.281857   17.461962   80.369270
H   79.253288   34.056072   91.606865
H   74.579880   48.070351   50.085320
H   40.533333   97.830673   76.009705
H   38.506660   87.441391   32.673611
H   36.984711   17.928137   60.971054
H    6.008321   79.160179   58.233509
H   29.698450   34.425171    5.436029
H   98.790573   52.439522    1.912638
H    9.690355   21.588615   39.496681
H   62.593315   74.855347   26.876526
H   93.190536   25.246916   73.998665
H   80.511612   36.664776   61.078262
H   95.185844   31.217171   73.390793
H   68.555801   93.818222   59.774574
H   10.192834   26.332027   31.403330
H   87.644234   15.164540   73.580017
H   42.033333   56.213737   68.344696
H   41.202042   34.077423   25.207626
H   36.661278   47.932159   56.122101
H   25.487612   14.314095   45.863976
H   93.065849   65.414879   90.039879
H   50.776546    8.601444   59.437740
