100
TIME:    5.231, STEP:  5231
H   63.571205   42.311928   94.356888
H   56.007484   88.323715    7.936419
H   69.673294   50.242813   61.943630
H   82.354614   17.133137   53.435059
H   48.317459   92.045227   23.870682
H   46.904804   95.540962   96.789330
H   78.812828   14.559111   99.524017
H    8.740013   41.149555   27.900707
H   25.039970   83.354004   70.815163
H   31.889765   91.492775   12.528860
H   13.680145   76.723267   35.873264
H   56.190063   85.893776   20.580622
H   10.266037   45.261833    5.243382
H   96.073448   88.952461   55.322441
H   44.128227    2.773758   99.322021
H   91.196091   54.206680   98.821991
H    3.461156   27.960903   49.586914
H   12.929166   40.295200   18.192389
H   26.743023   97.798599   38.951000
H   51.583069   94.728798   72.483437
H   53.861763   35.454933   15.266338
H   63.881409   51.028214   73.810318
H   15.902627   52.078835   82.684753
H   33.022388   99.406219   18.573231
H   42.492950   71.315979   75.171974
H   22.700472   72.017838   98.518661
H   11.003508   25.030003    3.756243
H   91.165413    0.605113   39.682144
H   24.914406   23.689135    9.900414
H    1.573727   61.372459   99.238564
H   21.927475   91.129608   95.518867
H   96.045876    7.986789   15.004143
H   38.821850   85.757774   69.046745
H   99.123093   94.332878   51.377052
H   50.743195   63.496597   43.258995
H   27.359232   95.142677    2.980749
H   81.519684   12.964798   20.647503
H   47.784298   63.227085   91.579094
H   24.269764   67.442558   37.389175
H   70.490944   22.474335   49.599087
H   77.750092   35.671089   65.585793
H   61.487999   46.628471   48.553753
H   56.298504   94.868698   79.314095
H   45.325993    0.444898   92.195724
H    2.905592   25.503632    3.740909
H   10.599867   62.690144    4.412448
H   82.601852    9.317090   75.678841
H   56.518780   49.247574   92.242592
H   17.938606   99.219238   35.807106
H   35.587513   10.350515   17.801651
H   43.145527   64.624207    8.570079
H   59.349113   78.342117   30.656555
H   17.377926   52.339844   99.060173
H   55.551300   21.853943   62.645897
H   24.295193   17.024542   44.840252
H    0.110890    7.031219   14.551224
H   27.874687   38.608589   53.499107
H   36.544083   82.884087   78.816391
H    2.835409   59.791702    9.895889
H   13.827532   29.860165   14.828499
H   89.675812   35.306492    6.546720
H   13.258234   79.252670   58.669830
H   29.192545   50.329269   74.765076
H    2.242439   70.258621   85.117935
H   39.949921   43.052990   82.709084
H   79.997459   82.224632   55.480873
H   67.875549   29.212387   19.615063
H   19.025002   16.703726   16.274649
H   17.613638   73.920036   32.153442
H   36.365837   11.245764   90.718140
H   55.924995   39.483170   99.397011
H   42.647087   77.918167   39.611153
H   65.920364   59.557945   27.625153
H   15.055271   18.349392   92.345757
H   14.379319   36.097752   97.942841
H   49.324081   42.831032   43.949253
H   41.895931   73.158638   83.561272
H   77.742218    8.677696    3.327177
H   12.359426   38.153629   76.046791
H   42.987595   24.060852   70.265930
H   13.234295   83.398758   92.633965
H   33.814079   78.389969   49.364769
H   48.748016   94.600159   28.117613
H   10.034800   59.787155   85.645996
H   97.622292   21.682327   40.665550
H   30.899792    1.196650    5.039662
H   16.521399   23.016617   72.977768
H   40.156342   86.488480   41.343445
H   64.241562    2.918981   85.407967
H    3.847462   94.056931   11.213820
H   38.096764   55.889439   43.930950
H   65.339928   88.900787   33.198990
H   20.770494   84.477089   23.525837
H   52.823555   30.531813   79.517479
H   66.150383   81.168663   36.287968
H   25.980774   89.165619   97.260773
H   47.389946   67.877068   36.349609
H   26.066313   60.776520   72.326195
H   59.520294   59.399082    6.885216
H   64.126968   44.397350   93.821503
