100
TIME:    4.896, STEP:  4896
H   86.226234   73.033211   94.663589
H   65.259651   70.172089   86.814331
H   63.912453   26.141483   65.875862
H   82.298386   30.935989   71.797737
H   51.318024   65.193497   32.953018
H   52.100842   95.903893   63.614407
H   96.371498   91.938522   73.326584
H   35.070351   12.168719   58.660328
H   33.274910   15.563086   91.900902
H   41.044792   86.682671   99.409973
H   44.841034   63.243732   68.141159
H   68.975975   69.101860   44.426064
H   31.643143   65.519478   38.530762
H   12.660382   89.985023   29.827868
H   40.054207   32.696594   15.425568
H    4.665790   83.506912   26.630550
H   30.400032    5.803970   19.090544
H    5.765666   56.593838   29.804880
H   21.525261   83.746552   21.302874
H   60.607765    1.843929   49.675056
H   73.741142   68.805817   24.358765
H   31.764633   50.583496    2.338662
H   20.375374   54.803368   92.269180
H   64.150040   95.398651   43.453712
H   54.474762   97.881454   72.697914
H   24.227591   81.919189   30.020750
H   39.891319   38.956173   97.109779
H   19.431839   84.968445   28.607660
H   17.630241   93.295677   25.735165
H   88.728134   69.663628   72.606636
H    8.742785   61.088428   22.023003
H   74.893684   17.242065   46.016792
H   15.224600   10.267912   38.867302
H   84.968811   25.033447   65.490440
H   59.070145   88.819931   22.860779
H   98.238937   68.904350    4.034446
H   49.388733   25.234142   94.251083
H   61.629322   69.356331   67.937508
H   38.411266   74.742058   69.853546
H    2.045342   53.836746   23.241060
H    0.645340   24.177443   57.693340
H   91.595879   31.592459   32.817402
H   53.412952   92.859802   55.116272
H   66.716202   94.822021   59.440346
H   31.964296   38.719917   75.074364
H   14.922443   56.300526    3.050613
H   79.984665   91.098473   72.463585
H   56.500889   45.797180   71.514671
H    8.147156   26.963100   49.171631
H   28.561489    5.251600   41.231102
H   43.171085   96.965897    5.038537
H   43.068367    9.426798   52.649620
H   10.429090   50.397400   18.516523
H   63.308296   27.320900   47.862877
H   50.968384   87.664803   41.990482
H   99.692215    7.383606   25.955414
H    6.637872   48.274803   21.637917
H   61.489151   14.520739   87.444931
H   76.413322   45.637421   35.614281
H   35.933117    4.110054   24.356697
H   68.544067   50.884380   32.665154
H   25.146757   82.370804   73.826904
H    6.449338   73.188766   97.737030
H   79.239662   68.433746   94.211639
H   26.652361   69.809601   51.512409
H    0.577106   98.878532   35.673058
H   94.752838   17.630566    3.440468
H   42.165642   97.544083    0.259712
H    0.916755   97.991005   53.165062
H   29.579607   94.396484   91.423553
H   66.562431   62.276215    3.415709
H   70.268707   89.036102   15.083568
H   87.762634   76.129372   36.215355
H   22.428890   39.550968   12.250031
H   98.227913   35.619808   72.547943
H   41.403511   21.359995   66.489548
H   11.479658    2.193170   77.636818
H   62.003307   30.582584   84.827583
H   96.294960   39.137630   72.310143
H   59.416107   42.307194   99.126556
H    6.679121   79.933029   72.611458
H    8.677508   76.202164   77.376854
H   27.557489   88.997742   96.213593
H   86.986725   31.120733   16.243507
H   13.934379   42.637718   73.140144
H   38.610783   88.892677   81.776230
H   94.147484   47.373840   57.003723
H   34.763504   13.309183   44.827065
H   57.289658   21.570715   88.147835
H   33.466221    7.839516   99.238708
H   24.387199   37.801708   36.856365
H   40.553318   63.705246   26.817038
H   99.296730   74.426094   97.619736
H   20.444458   10.210835   56.929699
H   71.941933   11.175179   28.590321
H   98.311081    2.394538   14.564392
H   73.980980   48.651989   55.615585
H   24.836950   57.924194   77.688362
H   75.479004   57.955029   34.945862
H   43.319798   52.992664   26.092981
