100
TIME:    4.945, STEP:  4945
H   82.912514   68.539650   94.618729
H   63.906349   72.827103   89.903748
H   64.755051   29.666611   65.300896
H   82.306610   28.917065   69.112068
H   50.879135   69.121063   31.624443
H   51.340824   95.850807   68.466881
H   93.803215   95.247009   77.158447
H   31.219048   16.407780   54.161160
H   32.070396   10.851856   88.816719
H   39.705696   87.386238    1.328753
H   40.283173   65.215363   63.421101
H   67.106026   71.557991   40.938133
H   28.516342   62.556419   33.661865
H   10.234252   89.833992   33.556923
H   40.650108   28.319830   13.070093
H    2.695495   79.221207   22.562981
H   26.459755    9.044885   23.551207
H    6.813493   54.209858   28.106337
H   22.288456   85.801926   23.884241
H   59.287735    0.803355   53.011208
H   70.833412   63.927940   23.028828
H   36.462311   50.648544   98.165878
H   19.721153   54.404854   90.867279
H   59.597050   95.984833   39.814377
H   52.722198   93.995758   73.059792
H   24.004221   80.470932   25.412981
H   35.665802   36.919117   98.081764
H   15.297368   87.255600   30.227510
H   18.695686   97.741386   23.419037
H   90.607056   68.450890   76.502052
H   10.671334   65.482300   18.146278
H   77.987587   15.888381   41.480614
H   18.676102    6.682952   43.281609
H   87.039139   20.542877   63.426094
H   57.852173   85.115921   25.844398
H    2.498429   72.742195    3.880302
H   54.088280   23.439522   98.112106
H   59.604229   68.459862   71.395531
H   36.342808   73.674370   65.105026
H   97.430000   49.249352   27.096289
H   97.296509   25.858603   58.847759
H   87.192039   33.791725   35.119137
H   53.835018   93.153641   58.655418
H   63.587208   95.644470   64.231125
H   27.713919   36.786789   79.267357
H   14.290186   57.235126    3.249799
H   80.367477   93.763206   72.933876
H   56.503506   46.301865   74.546516
H    9.579338   22.905064   47.216820
H   29.589176    5.997412   37.804108
H   43.167347   92.235321    5.555090
H   45.449730    4.879932   49.432724
H   11.445468   50.681519   15.670664
H   62.173691   26.521255   50.025169
H   47.066986   91.959480   42.407314
H   99.753525    7.332063   24.287338
H    9.744205   46.860939   26.298210
H   57.840469    9.893250   86.182846
H   80.278084   47.707748   31.852333
H   32.699772    7.876449   22.963020
H   71.634979   48.605824   28.844879
H   23.407839   81.914719   71.610031
H    9.775956   69.845139   94.376953
H   82.604225   68.700668   92.881516
H   28.597265   65.896240   56.075504
H   97.566978   96.442589   38.570320
H   90.821533   19.324623    5.806275
H   38.780891    0.346410    2.602195
H    3.358989   94.470177   50.091721
H   30.572340   96.860840   91.320374
H   65.006508   58.942307    2.827868
H   66.228241   87.409897   18.671127
H   84.567795   73.705391   34.958878
H   21.350361   36.449963    9.338749
H    0.590526   35.689716   76.262421
H   42.562042   24.500441   63.192371
H   15.928545   97.946236   78.503380
H   64.305420   27.378586   87.533440
H   98.644920   38.993702   72.856697
H   57.013062   39.638348   94.905151
H    7.637975   80.439957   75.540123
H   12.354135   76.522171   73.279564
H   30.657000   89.817200    0.879921
H   90.358017   35.313766   11.768176
H   11.548436   39.572601   68.390129
H   37.482906   90.692345   85.178925
H   97.420082   43.811142   59.340225
H   35.552307    9.386196   44.317520
H   58.306503   18.842615   87.747078
H   29.133909    5.823395    0.990392
H   26.392479   40.447376   37.891155
H   44.178822   67.390564   27.750517
H    2.437646   75.896782    1.408993
H   25.180641   13.183053   60.233326
H   71.094810    6.785933   29.716141
H    2.358302    0.459659   12.033400
H   70.091545   51.464016   52.797577
H   25.016768   58.341400   76.904045
H   73.144745   58.166248   30.841469
H   46.363232   51.735439   21.372686
