100
TIME:    4.008, STEP:  4008
H   46.277252   54.467285   95.476578
H   89.784798   22.050829   30.822596
H   48.648598   62.255516   76.295662
H   82.149338   67.520561   20.470510
H   59.271759   94.016380   57.031021
H   65.873299   96.865929   75.672203
H   42.910717   31.977016    3.883779
H    4.865402   35.344723   40.192959
H   55.103645    0.940433   47.798183
H   65.312492   73.932304   64.641174
H   27.440628   27.512897   53.678074
H    2.864593   24.590754    7.635571
H   88.308426   19.218559   26.767166
H   56.628136   92.722084   62.251858
H   29.254150   12.016806   58.112934
H   40.372040   61.174736    0.341750
H    1.807533   47.068043   38.252403
H   86.786339   99.791435   60.592693
H    7.694317   46.494957   74.518372
H   84.535759   20.701868   89.215935
H   26.436310   57.209072   48.458168
H   46.631210   49.404663   77.960068
H   32.231453   62.025414   17.676357
H   46.654884   84.751343    9.403532
H   86.235504   68.305954   66.139809
H   28.278143    8.185496   13.500977
H   16.464148   75.870438   79.495033
H   94.358795   43.519592   99.253105
H   98.320450   12.729281   67.711952
H   54.677475   91.641411    2.013532
H   73.796608   81.460396   92.278740
H   18.824598   41.773987   28.223396
H   52.676243   75.238091   58.869247
H   47.449402    6.413491    2.901230
H   81.142776   55.946068   68.786362
H   21.043459   99.334503    6.852060
H   64.217392   57.754379   24.279898
H   98.335304   85.602547    5.275759
H   75.894653   94.091179   55.907158
H   85.684471   36.967659   53.376102
H   61.333267   93.709122   36.772442
H   71.404922   91.738861   91.100967
H   45.764088   87.534729   90.975945
H   23.420832   79.941498   72.615112
H    8.991720   73.754822   99.085632
H   26.378963   39.363270   99.441628
H   73.047165   42.806969   63.940712
H   56.453465   36.651062   16.570213
H   82.187607    0.507975   84.593658
H    9.937282   91.739815    3.340574
H   43.238834   82.696754   95.676529
H   99.914749   91.826721   10.943378
H   92.011757   45.248474   70.092171
H   83.876671   41.812416    8.678859
H   21.670975    9.839434   34.436466
H   98.581131    8.317984   56.185028
H   50.340679   73.897484   37.181679
H   27.611809   98.381157   10.317842
H    6.379957    8.116213    3.786366
H   94.532776   35.856518   49.613533
H   12.528103   92.182030    1.901438
H   56.662865   90.636185   14.003983
H   46.163868   33.784843   58.629875
H   18.261225   63.597031   18.321888
H   91.406578   40.731731   68.816643
H   55.127327   43.023201   83.168045
H   65.999161   86.929321   60.568645
H    3.505705   46.759415   57.808178
H   56.661858   61.797012    8.856918
H   11.588854   49.734161   93.293427
H   94.759575   22.695621   14.068901
H   43.489006   18.507629   50.069340
H   45.662735   20.054745   58.985802
H   41.979885   95.744957   65.012291
H   55.411892   34.352901    5.231197
H   20.408091   64.449425   26.242329
H   30.855036   79.160202   61.932590
H   20.283459   88.647316   35.786942
H   53.709564   41.745968   62.404144
H    2.965236   90.669487   75.628471
H   89.306015   70.746262   19.537672
H   42.050201   70.402847   51.631226
H   71.384468   74.158691   11.642162
H   25.894545   55.132393   97.348648
H   57.173141   98.180977   59.221756
H   59.050663   56.276695   20.111069
H   34.839989   11.938683   14.660528
H   20.471193   84.404182   54.061256
H   38.861923   71.013237   95.410530
H   11.977183   44.376564   67.491516
H   88.046448   89.852135   18.103434
H   74.847839   96.924370    9.897060
H   42.374001   47.777756   28.949320
H   34.616314   56.348663   97.057854
H   87.293861   90.717033    8.187053
H   24.965988   37.459114   60.430534
H   44.465912   97.691704    6.685022
H   21.578222   50.363403   91.902107
H   17.781334   54.127209    9.324234
H   88.163490   75.780159   11.636355
