100
TIME:    6.488, STEP:  6488
H   78.565506   27.039629   93.206070
H   21.292625   56.440472   87.194740
H   91.289490   40.676247   47.184391
H   82.565598   65.344757   84.533691
H   37.058624   92.799240   89.789581
H   27.408031   94.179161   21.274296
H   12.934663   99.437477   97.823128
H    9.942291   49.895718   12.486657
H   94.140450   62.498642   91.690132
H   97.549049    9.542204   61.749180
H   96.757080   27.301107   14.792850
H    8.210548   48.900455   31.105602
H   30.054062   69.248283   80.341240
H   33.833382   85.078041   50.980541
H   59.409248   90.492699   38.894405
H   40.656006   44.264870   94.479980
H    2.380662   11.102363   64.016579
H   39.810078   79.133057   74.616737
H   46.317806   50.534248    5.176251
H   17.720253   68.029823   58.065819
H   79.269608   10.315891   81.146751
H   84.391220   52.696899   66.765152
H   99.118050   41.855736   46.721695
H   16.228863   14.443575   25.217813
H   97.536934   71.629807   84.455238
H   16.970358   34.858078   80.314461
H    2.611004   72.779984   28.699247
H   85.103073   59.277611   81.232285
H   52.246330   37.733807   50.480499
H   49.771473   30.262016   99.166458
H   71.400642    3.847581   96.069099
H   75.413574   73.253204   98.637428
H   27.362743   93.789818   82.287231
H   52.235512   79.136276   98.423004
H   19.487915   68.437416   19.785730
H   36.628048   93.596413   99.028084
H    2.083037   66.930786   19.694189
H   95.832466   40.220318   80.281380
H   71.213257   40.053093   15.576948
H   52.095844    4.798019   48.497257
H   91.843216   78.801277   95.200172
H   53.440704   67.045837   11.184278
H   67.123016    2.407436   70.108238
H   65.061478   21.543600   15.098260
H   93.869957   75.907578   11.305785
H   94.377098   86.665512    9.519430
H   92.422165   77.677261   87.743248
H   56.585911   62.194275   70.018600
H   54.678467   95.114418   85.665298
H   61.956554   29.484312   29.890581
H   43.056095   43.269257   21.820213
H   20.440296   61.702370   48.139442
H   43.453541   59.628357   26.055365
H   26.445198    1.342328   18.113766
H   24.210953   27.181965   55.533268
H    1.676555    5.708977   71.759964
H    7.563789    2.337770   73.050209
H   42.945465   64.176003   46.440048
H    1.972478   12.903869   13.399372
H   30.877777   26.477261   79.076439
H   68.968620   76.848770    8.541126
H   68.646126   67.552689    1.791148
H   14.530344   64.553627   88.568817
H   88.559067   77.105988   50.992527
H   89.842499   42.658588   99.767754
H    2.779387   19.735222   29.805037
H   67.024094   72.667572   80.302505
H   32.195351   88.592506   76.366516
H   80.263588   83.600037   53.317669
H   61.827682   74.470634   88.071259
H   16.008873   53.957779   84.321297
H   39.001842   36.201019   31.642437
H   83.961166   97.384613   95.394104
H   87.383232   38.793774   17.658598
H   74.982536   37.891109   93.232071
H   79.039101   23.392307   59.368202
H   56.031826   64.248924    5.807227
H   36.798367   26.485468   72.748695
H   72.635033   34.461422   90.067589
H   81.347641   55.587746   61.974174
H   37.832756   96.403000   67.761627
H   28.151621   86.546463   44.218182
H   28.255478   15.620318   47.828247
H   96.514000   67.351341   70.837822
H   36.417961   43.057541   18.813416
H    1.966563   47.370018   92.329498
H    0.473568   31.622337   32.916328
H   60.373894   85.897705   28.307358
H   90.326767   32.930199   75.127327
H   92.712112   42.342831   56.145630
H   89.538322   23.765579   70.476486
H   58.345196   83.439163   57.145592
H    1.346901   22.191143   20.731577
H   74.306648    6.792489   64.274872
H   44.419106   68.574936   65.173492
H   29.803818   39.527008   32.335464
H   47.615196   40.012573   64.058533
H   25.753984    7.485805   48.634041
H   99.639885   64.818962    1.598280
H   42.205242   12.142727   72.731468
