100
TIME:    8.086, STEP:  8086
H   70.499016   80.496483   91.743057
H   77.161148   43.033138   87.953445
H   18.761858   55.642990   28.422417
H   82.833817   99.506218   96.940865
H   22.741541   20.885807   46.460022
H    2.623803   92.447929   79.530098
H   29.183315    7.342349   22.788898
H   84.342636   88.143822   65.765099
H   54.858559    8.856843   91.102097
H   53.902504   32.487980   24.319572
H   48.115005   91.600510   60.864204
H   47.222336   28.999798   17.358734
H   28.132454   72.550369   21.542860
H   54.710655   80.152565   72.588982
H   78.818550   47.751450   62.043800
H   76.402466    4.497795   61.832306
H   73.878975   16.797489    9.488835
H   73.980057    1.374379   19.225773
H   71.204742   17.570080   89.364166
H   74.663925   34.098675   66.865089
H   84.442024   51.231075   37.775799
H   37.593037   54.818268   30.680664
H   77.782448   28.860781    0.999415
H   67.752808   33.560272    6.536668
H   40.381905   44.900520   96.256874
H    9.481228   87.728195   29.953506
H   64.815201    6.350575   60.410046
H   50.268021   33.866840   34.052132
H   86.992882   82.717331   74.942711
H   11.046721   90.710678   26.202091
H   34.290089   47.142616   69.640495
H   76.312309   29.104244   50.702538
H   39.923923   76.872292   26.247694
H   19.754616   32.688972   31.100119
H   79.717415   47.446342   17.010191
H   75.539963   18.759329   94.005074
H   55.350994    8.407820   45.610439
H   29.783554   10.972780   93.048470
H    3.757942    5.238077   60.718803
H    1.583009   55.199722   74.224976
H   82.630997   33.632576   32.847134
H   18.770042   73.312408   92.765282
H   80.875336   11.993343   85.533607
H   63.024204   48.365860   71.340851
H   55.254501   12.861469   48.051056
H   73.748619   17.141838   16.011549
H    4.909530   64.582344    3.082481
H   56.681149   78.653168   68.893410
H    1.394580   62.766479   21.919628
H   95.507568   53.807529   18.158966
H   42.946369   88.992104   38.665558
H   98.107681   13.417700   43.241425
H   76.598335   68.894104   33.249855
H   89.439697   75.275833   88.629776
H   96.975105   67.224182   69.122498
H    3.666862    4.028036   17.360275
H    8.870055   56.228371   25.033455
H   23.955416   13.264265    5.277461
H   27.999916   80.430992   90.723907
H   25.426514   49.305714   33.625511
H   69.771652    2.535946   83.947731
H   11.930000   52.678726   29.488075
H   23.018696   55.509064   78.989166
H   98.290459   85.810913    7.602585
H   53.271454   15.028601   48.583145
H    4.613091   40.294243   24.291782
H   38.813965   27.916935   57.454449
H   21.810600   79.984062   52.760162
H   59.908920   68.777946   53.093948
H   94.247200   54.781811   84.693329
H   65.265556   45.230728   65.155830
H    7.405389   83.112694   48.746143
H   79.768600   18.345781   54.426769
H   52.201870   37.656864   22.710680
H   51.981598   40.221409   14.387482
H   16.813593   25.809170   51.843430
H    1.163814   25.936531   34.147583
H   11.874024   21.999538   61.000721
H   49.265198   29.767590    7.896048
H    2.980767   68.536674   24.304970
H   69.111977   12.935739   63.272095
H   48.062881   96.909470   10.529755
H   29.331636   42.344639    0.012070
H    6.453717    4.095432   24.886288
H   58.609360   43.092358   63.905998
H   65.195602    6.065299    3.299492
H    7.200506   15.434395    9.115028
H   86.074150   58.025246   11.738739
H   23.492336   43.956322   62.057747
H   51.428295   76.596939   13.272676
H   54.935139   10.052749    4.223484
H   76.581017    3.624223   87.597893
H    3.781769   70.139824   44.307373
H   28.746782    3.741143   72.025352
H   16.789192   25.434868    1.894950
H   61.792038   76.424866   49.796577
H   20.773695   31.717510   72.155357
H   22.669466   86.554802   16.554552
H   23.514458   71.719505   67.751045
H   41.463352   71.131699   18.789753
