100
TIME:    8.965, STEP:  8965
H   11.055966   99.888588   90.938309
H   52.884567   90.663788   43.377193
H   33.871014   18.881836   18.104870
H   82.981354   63.292534   48.761131
H   14.865065   91.341537   22.627373
H   88.995728   91.495644   66.580780
H   83.114021   66.698952   91.527840
H   15.254974   64.187210   85.057243
H   33.251060   24.344284   35.772213
H   29.893877   45.109119   58.736732
H   66.352570   26.967564   76.194740
H   13.671028   73.059776   54.790367
H   72.081329   19.348709   34.190582
H   11.188590   77.443245   39.480930
H   89.494881   69.234840   19.774384
H   41.060593   27.617393   88.867249
H    3.194977   74.935127   89.507668
H   92.775131   58.602028   88.755447
H   84.898880   54.447681   35.672390
H   50.981182   15.432238   26.711451
H   32.280907   63.724190   13.919168
H   21.863626   55.985153   55.825714
H   66.046532   21.715284   75.850952
H   86.080276   44.075653   41.255383
H    8.945146   75.191559    2.747206
H    5.335592   61.815292   47.235928
H   89.017036   69.814224   77.847641
H   76.100494   74.895599   63.110260
H    6.106009   62.466885   33.390862
H   44.750435   68.955643   96.080811
H   68.886620   25.964928    0.096828
H   31.812763    4.820295   69.329124
H    1.838663   12.560486    5.434956
H   56.894867   52.133911   94.070946
H   57.841667   80.893715   70.491623
H   51.949436   87.609329   91.242104
H   39.659164   76.217049   14.872119
H   93.452614   94.887688   55.075325
H   66.658470   86.085960   75.537415
H   18.790998   72.910667   43.382355
H   22.557047   63.790527   53.555996
H   44.692581   76.759415   37.640072
H   88.439972   17.266525   49.023518
H    6.899717   63.126289   57.283550
H   79.008041   78.187843   23.270887
H   62.402611   33.904461   19.582621
H   11.781611   12.385305   11.523779
H   56.734798   87.706589   23.280537
H   27.086388   89.969276   86.856598
H   13.959324   67.188072   56.700886
H   42.886013    4.130268   47.933578
H   40.828457   31.853184   85.539467
H   94.825890   73.990845   82.199875
H   69.079559   60.936462   27.416298
H   26.988567   44.254829   76.593246
H    4.761656    3.103414   87.437027
H   64.592468   30.865379    8.633571
H   58.503357   30.253920   82.636742
H   97.328804   17.571898   23.242128
H   67.420036   16.867405    8.624657
H   25.219873   61.655415   15.414722
H   80.732536   44.497116   89.716957
H   82.694901   95.527122   18.713501
H   58.651447   90.599167   83.739929
H   88.159363   44.824581   30.440477
H   50.614723   96.597008   76.265129
H   68.289719   58.303349   99.891525
H   61.091888   30.255936   94.781448
H    3.715159    5.618599   97.962677
H   12.099486   98.934280   82.828995
H   37.347790   85.420860   54.613625
H   35.021439   53.927147   13.177144
H   22.457092   74.864098   31.887104
H   32.854374   82.024635   70.483833
H   94.324783   41.515713   81.034027
H   37.596222   82.145744   92.698837
H   80.995926   49.857517   49.739586
H   53.165798   64.527077    9.552283
H   91.418266   27.185688   17.705889
H   59.873222   20.653341   48.578423
H   86.320183   22.029398   15.809236
H   14.022854    2.612456   36.992172
H   84.930367   57.044712   83.724373
H   66.925606   79.313576   44.602657
H   15.810150   88.106003   78.697495
H   44.963276   38.353142   64.340012
H   65.906929   51.523628   51.029015
H    0.210883   87.686501    2.624836
H   41.734867   95.015877   54.868660
H   73.713028   40.432533   44.693253
H   90.907402   57.513004   22.786522
H   41.618114   69.733139    4.348459
H   60.127277   96.508751   12.281795
H   13.698130   57.069080   31.293737
H    1.589852   46.700077   22.091955
H   34.393860   41.713379    4.394918
H   51.002617   82.161812   21.603046
H   20.972788   30.049019   98.906883
H   81.641197   75.515236   94.124153
H   96.062775   48.576504   34.113232
