100
TIME:    5.882, STEP:  5882
H   19.546762   82.612846   93.760880
H   38.027901   23.600370   48.985035
H   80.868317   97.079132   54.299824
H   82.463882   90.311188   17.750053
H   42.486511   44.225662    6.220697
H   36.807430   94.835686   61.261349
H   44.694164   58.519650   50.433140
H   57.572693   97.470322   68.129021
H    9.037148   20.763199   29.835581
H   14.102823    0.840240   38.021824
H   53.125717    2.917739   73.164848
H   31.341484   18.524632   74.241997
H   68.724289    5.893837   40.556572
H   63.839333   86.945900    4.861996
H   52.045204   44.623306   68.031586
H   65.021393   97.267677   44.783905
H   51.111702   71.018349    8.850012
H   26.850653    8.620491   95.625526
H   36.881420   25.110102   73.247650
H   34.045525   80.901405   16.806482
H   15.230492   70.646301   97.596855
H   26.293411   51.892426   18.371613
H    7.209654   46.784294   64.059494
H   72.536064    7.194064   70.225754
H   19.210258   19.687462   79.979774
H   19.732847   52.773804   37.300842
H   54.868149   97.968338   16.673750
H   36.235828   30.991570   61.203011
H   39.069603   82.753204   79.127167
H   26.534744   45.260368   50.990494
H   47.549889   49.505436   44.013817
H   37.150211   89.999207   54.737846
H   84.677483   38.126778   27.693968
H   26.630566   34.672447   23.951468
H   34.561569   14.285328   82.900879
H   83.950012   46.132454    0.933391
H   43.959183   89.123169   71.943947
H   20.879486   51.311886   37.517673
H   96.789978   53.257561   74.302895
H    9.175142   61.531040    0.817507
H   33.258072   58.006500   80.923073
H    4.511012   64.669403   80.245354
H   61.905949   98.772552   26.337440
H    3.759076   11.372091   55.846054
H   46.435482   99.819870   59.449078
H    2.199144   75.106979    7.057463
H   87.687790   44.721573   81.926994
H   56.553547   55.952667   32.522724
H   36.966171   45.302078    9.837871
H   49.241070   20.259153   72.268478
H   43.097706    1.773986   15.432866
H   90.987221   17.933468   87.919289
H   30.882481   56.114563   61.253017
H   40.477257   11.230653   91.373497
H   72.461266   74.075912   50.378162
H    0.921776    6.346430   92.389633
H   69.143913   19.824394   15.414730
H   88.069977   21.405401   62.048691
H   54.176735   87.297661   59.920219
H   70.866470   79.898453   96.312523
H   30.742161    5.032475   55.787968
H   90.154243   73.193253   29.212120
H   73.390312    5.905607   30.124054
H   46.946457   73.804871   67.446289
H   65.791504   91.058517   43.334370
H   40.005302   49.861382   93.973076
H   15.644577   51.716976   51.045547
H   74.055733   53.935398   47.396214
H   50.061321   27.143318   91.323425
H   49.552521   43.990059   89.347321
H   35.253441   95.189377   91.589302
H   88.969376   56.312866   87.274490
H   23.474140   27.358597   10.931953
H    0.726167   77.146568   53.664818
H   45.765453   37.026531   47.293839
H   64.715767   84.554131    0.146164
H    1.001994   16.733030   95.074165
H    8.327388   66.112175   39.281013
H   43.575504   36.241436   83.308159
H   11.066381   88.598915   14.181510
H   25.973703   90.133652   31.541842
H   82.672226   82.616425   94.911308
H   89.924095    5.486810   90.115280
H   54.821075   15.494415   26.187397
H   65.924583   80.962837   77.558502
H   15.915150   25.109001   50.247192
H   60.000206   75.683464    4.019915
H   50.627739   34.389812   34.590576
H   77.751083   66.671867   80.083626
H   46.291164   67.276291   34.484940
H   64.738335   91.042847   57.678875
H   13.507334   37.861557   45.600929
H   62.501007    4.007261   73.868668
H   15.740427   70.027290   23.413149
H   54.895760   22.855679   51.247776
H   79.750656   63.457794   63.635971
H   95.717186    5.236681   98.909821
H   26.923708   77.499039   60.798241
H   28.507996   62.205288   52.358719
H    4.565683   27.693577   31.108891
