100
TIME:    9.760, STEP:  9760
H   57.292877   26.983067   90.210464
H   30.928082   33.744358   93.503899
H   47.536289   76.077568    8.772125
H   83.114792   30.539408    5.182997
H    7.741289   55.064026    1.073043
H   76.670898   90.634361   45.311539
H   41.448223   20.379732   53.697887
H   52.769547   32.965870   12.062361
H   13.708443   47.907791   85.730431
H    8.176825   56.524143   89.864204
H   92.403534   58.955841   99.614586
H   83.329323   12.908730   98.202095
H   21.386978   71.228020   55.185234
H   71.824783   74.992836   99.979378
H   99.150948   98.221527   81.541283
H    9.093925   58.083664   22.875618
H   39.265938   27.519073   61.879654
H    9.779006   19.917107   61.195030
H   97.284363   87.796814   77.561630
H   29.564365   98.549042   80.838799
H   85.103989   84.579292   92.339447
H   98.081055   57.040527   88.124146
H   55.432137   15.252459   53.105820
H   12.212776   53.586151   82.212173
H   80.511215   12.143127    8.615532
H    1.585434   38.378708   72.423073
H   20.462898   36.765095   93.617599
H    9.021610   12.003514   89.385643
H   23.393093   34.595219   95.812271
H   75.234978   49.279587   59.280495
H    0.171814   97.254288   37.198959
H   82.009750   82.852692   95.732018
H   57.839828   54.394165   77.054832
H   90.484879   79.276970   60.577980
H   38.056435   20.700996   18.858824
H   21.057322   49.879726   88.743172
H   15.910333   47.103279   77.515213
H   60.591076   80.342934   11.177924
H   33.099262   68.763268   98.496346
H   43.910366   98.483704    5.930722
H   68.224625   91.072510   72.285851
H   77.694023   79.879837   78.219475
H   95.281708   22.036938    6.448336
H   56.143017   76.470497   35.014080
H   10.034521   46.803989   91.295410
H   52.146072   49.067883   22.812429
H   17.997585   55.623943   19.157934
H   56.783321   95.894836   72.470673
H   50.322815   24.127308   55.145157
H   30.645338   79.294548    1.113156
H   45.627186   27.588745   52.019547
H   79.464859   58.084305   33.353035
H   11.314611   78.600525   36.026718
H   50.669495   47.962639   62.497993
H   63.689186   13.924273   83.350067
H    5.751827    2.267151   60.373352
H   14.994301    7.925624   84.244606
H   99.306595   55.175636   62.160057
H   60.031109   51.166672   62.211056
H   14.960239   77.974609   86.012978
H   75.372620   24.686392   53.436245
H   52.516441   37.097366   53.747589
H   36.681164   41.301033   64.208511
H   13.241344   94.929840   62.158829
H   19.713341   81.328102    4.474566
H    1.777905   57.075066   23.272226
H    4.504993   85.790344   38.275585
H    6.175769   75.722054   32.787048
H   43.339821   48.494980   48.103413
H   28.245499   38.863369   81.142822
H   12.099817   31.326237   45.078865
H   69.553963   27.530663   71.448822
H   70.622101   35.540638   11.501400
H   15.355785   31.710213   23.247305
H   32.618996   42.686329   41.311283
H   56.392799   33.096905   39.205101
H   53.199165   81.047653   63.841568
H   90.514580   12.546867   53.459488
H   29.540991   24.850521   26.579523
H   20.885899   77.345589   80.088570
H    1.883753   30.254038   63.325340
H   73.677605    7.773327   70.481331
H   35.214699   70.340004   59.436985
H   21.621895   47.343826   71.991539
H   77.100967   38.373108    1.631834
H   26.664059   67.557152   19.547413
H   19.003252   93.720329   88.937569
H   12.995539   24.072535   94.386200
H   58.232670   50.750816   48.366585
H    3.423272    7.722000   73.111450
H   23.442739    0.442716   39.575462
H    0.440064   29.524370   19.493868
H   11.088284   20.362906   73.760368
H   87.733131    5.088384   89.195778
H   87.845444   75.488747   40.359200
H    0.057541   10.320852   63.332214
H   87.899681   27.784199   75.881393
H   19.438250   69.383911   82.942833
H   43.769035   78.948235   27.535213
H   45.441917   28.178101   57.528965
