100
TIME:    1.171, STEP:  1171
H   38.131996   14.634558   98.073929
H   68.696739   68.236336   51.866543
H   99.883850   58.150356    9.590408
H   81.673157   84.404320   75.977654
H   84.682510   66.618340   33.953835
H    9.857937   99.939461   94.713402
H   91.598564   40.409557   82.026497
H   27.848007   89.908585    0.675985
H   24.842583   73.706482   26.376417
H   42.838951   33.197182   53.546783
H   91.331467   13.360053   26.953154
H   11.145237   82.386986    9.576254
H   68.773849   90.860115    8.741426
H   97.100929    1.466847   46.354321
H   94.743980   65.425964   94.482925
H   54.441086    9.311825   35.837387
H   29.919968   59.437088   79.972252
H   26.167976   37.755051   58.949997
H   63.498634   27.478067   25.055613
H   60.967186   80.946884   96.059807
H   94.787842   39.640923   25.461658
H   74.630913   45.645523   19.546375
H   70.109489   85.098549   98.845490
H   10.242981   50.726048   20.105415
H   87.702751   93.304726   45.202293
H   41.289639   92.717529   79.414673
H   61.103119   93.799576   23.203413
H   33.735611   11.097817    5.479209
H   36.633362   55.334141    1.819269
H   45.894192   61.857681   76.479881
H   62.165562   27.053728   16.749172
H   39.694736   20.159821   90.858757
H   52.842129   82.806587    3.289883
H   27.579475   66.407570   22.418692
H   51.664787   70.401497   96.035233
H   74.368652   76.472305   16.615088
H   92.113274   61.651711    0.735649
H   15.592442   37.521534    5.076484
H   98.075699   55.510597   29.892059
H   52.897774    2.557646   30.165583
H   55.215401   96.362633   69.932785
H   26.378380   64.415001   57.815647
H   21.327345   70.522079   86.055672
H    4.583557   32.395584   95.228401
H   55.079224   85.689011   56.315308
H   62.979969   85.251808   87.926704
H   48.444752   88.909302   37.629341
H   56.301952    7.439962   41.032757
H   99.262016   35.466850   97.761490
H   50.449406   48.572765    1.764548
H   43.455280   56.591164   65.763702
H   62.041206   55.079601   97.186966
H   33.170418   28.798584   34.859642
H   49.573322   88.098930   83.490005
H   47.537209   61.161953   10.342857
H   95.031418   11.301281   52.763199
H   70.486923   55.758324   67.359276
H   38.863220   66.301186   83.392776
H   82.631096   88.245712   21.584682
H   81.744522   17.794409   30.303551
H   33.568768   24.115051   23.095680
H   57.350067   17.045853   42.371399
H   53.661896   27.300419   53.223000
H   23.449335   48.164436   95.346184
H   78.802040   67.319298    4.613767
H   29.408791   84.059242   15.424028
H   93.616653   88.847290   23.598591
H   99.476631   84.507492   22.183172
H   15.263769   65.645737   86.789284
H   54.106812    7.040368   99.267334
H   84.847252   15.726068   48.103123
H   77.412308   12.662336   42.356926
H   30.640911   60.382191   31.722500
H    4.417317   75.277267   33.612587
H   18.630901   30.309893   90.167290
H   53.344166   82.623192   17.136536
H   73.274834   25.052298   11.754480
H   86.996033   74.152855   79.110504
H   17.681070   50.072117   30.745525
H   42.097549   45.179451   20.038361
H   33.797504   41.396191   49.976269
H   29.183895   51.875076   88.858841
H   91.889931   26.801512   41.431767
H   30.724165   12.365579   56.472115
H   95.310928   75.638046   34.237053
H   24.340137   52.068745   23.101219
H   45.363167   18.211693   79.380844
H   74.805954   11.541481   83.569664
H   79.983833   28.972322   18.619366
H   62.805771   61.099174   66.075890
H   71.944679   36.662464   58.191113
H   64.929100   83.576698   55.833450
H   60.417458   62.715828    9.506422
H   60.410278   84.262856    5.773627
H   36.347157   44.839035   42.994225
H   90.641357   49.489189    6.965235
H   69.653915   34.881588   69.843765
H   11.164662   26.208038   37.300423
H   52.928246   41.898014   46.961491
H   11.964493   48.625843   84.901680
