100
TIME:    6.068, STEP:  6068
H    6.968603   65.555656   93.590591
H   32.890877   33.680004   60.713627
H   84.066895   10.460406   52.115879
H   82.495102   82.648224    7.554469
H   40.820526   59.134384    1.177729
H   33.922466   94.634178   79.681053
H   34.946590   71.079018   64.978584
H   42.953461   13.561587   51.050884
H    4.464912    2.879857   18.127565
H    9.021852    3.511122   45.304478
H   35.824448   10.401653   55.248398
H   24.241890   27.847904   61.002098
H   56.855209   94.645927   22.074638
H   54.629585   86.372597   19.017193
H   54.307198   28.009037   59.090679
H   57.542908   80.999489   29.344330
H   36.154732   83.321663   25.782324
H   30.828299   99.570374   89.177284
H   39.777737   32.913551   83.047729
H   29.034798   76.950722   29.470240
H    4.192986   52.129398   92.547813
H   44.125412   52.139343    2.532036
H    4.726109   45.271568   58.737991
H   55.253941    9.419161   56.411770
H   12.558196    4.936256   81.353432
H   18.884954   47.274918   19.810341
H   38.828430   90.237259   20.364744
H   20.541843   39.673424   67.351059
H   43.113945   99.628754   70.334625
H   33.666431   40.656914   65.777176
H   54.870857   66.183922   29.298088
H   48.894413   84.859344   37.518883
H   97.778313   24.518312   44.450317
H   34.489845   17.626610   16.116087
H   29.937931    0.224839   94.227356
H    0.118863   60.700600    0.348447
H   61.798279   82.311646   86.600075
H   13.191818   47.907543   50.642628
H   88.939697   49.204704   56.277901
H   91.655731   44.117664   15.451643
H   20.546707   64.388130   85.305153
H   88.835907   65.398804   89.741753
H   63.508076   99.887939   39.772049
H   91.881851   14.494040   74.032188
H   30.302029   92.480453   75.365341
H   99.798851   78.654648    7.813117
H   89.140915   54.836685   83.712181
H   56.563480   57.868408   44.031361
H   42.402618   29.898102    2.417941
H   53.142086   23.090193   59.258987
H   43.084934   83.817047   17.393410
H    0.026680    0.673989   75.709633
H   34.740925   57.193054   50.449657
H   36.170387    8.195622   99.581383
H   57.651878   90.375320   51.960423
H    1.153446    6.150776   86.057755
H   80.936363   14.457379   33.104836
H   74.219879    3.839518   57.257919
H   68.846100   95.156456   45.641563
H   58.592163   94.194138   91.022240
H   42.475086   96.382462   41.286518
H   83.552742   71.461990   20.795631
H   86.017174   93.213295   17.369476
H   59.719482   74.818085   62.396793
H   73.173492   76.203720   60.655506
H   28.579185   40.614738    4.971002
H    0.721022   58.146770   60.025406
H   61.207497   64.572731   56.288090
H   59.332088   13.778542   79.658691
H   53.320145   53.345970   88.955658
H   29.346962   82.534134   89.358528
H   73.632095   50.139923    0.891912
H   11.346081   18.158783    6.162468
H   96.630974   65.373985   42.613121
H   54.732540   37.291897   61.393692
H   69.112038   96.474297   87.630005
H   17.889668    0.611700   98.363564
H   17.066006   53.949593   49.553642
H   52.494343   35.695095   85.382835
H    1.945069   78.466774   98.157646
H   29.613611   92.057907   42.658787
H   96.633011   83.822632   79.352654
H    1.688342    8.597194    7.828563
H   67.617210   31.411373    9.199599
H   56.868095   69.329323   59.527832
H   11.633823   31.941101   63.163544
H   72.422722   62.159752   12.889166
H   53.619133   19.505812   32.662064
H   81.610947   56.315514   78.562386
H   29.845686   59.623867   41.133270
H   72.350212    1.086920   61.606853
H   27.269449   51.850723   49.144341
H   74.424011    9.588452   88.252335
H   33.716389   81.311714   35.954865
H   51.680153    6.194428   55.522007
H   95.113480   56.112701   54.028885
H   80.953209   15.910552   88.212891
H   26.564684   86.703110   57.064674
H   19.647339   63.007061   36.778778
H   16.118662   22.920544   13.190383
