100
TIME:    5.024, STEP:  5024
H   77.569984   61.294930   94.546402
H   61.724495   77.107635   94.884644
H   66.113586   35.350159   64.373909
H   82.319870   25.662064   64.782112
H   50.171539   75.453262   29.482670
H   50.115490   95.765221   76.290215
H   89.662514    0.581153   83.336349
H   25.009804   23.242046   46.907398
H   30.128426    3.256205   83.844261
H   37.546745   88.520561    4.422479
H   32.934784   68.394119   55.811733
H   64.091209   75.517876   35.314735
H   23.475174   57.779243   25.812012
H    6.322736   89.590492   39.569077
H   41.610847   21.263460    9.272491
H   99.518921   72.311600   16.005062
H   20.107063   14.270034   30.742887
H    8.502826   50.366299   25.367868
H   23.518913   89.115692   28.046038
H   57.159523   99.125526   58.389900
H   66.145439   56.063019   20.884644
H   44.036118   50.753418   91.438293
H   18.666389   53.762352   88.607071
H   52.256496   96.929901   33.946877
H   49.896637   87.731064   73.643227
H   23.644094   78.135986   17.984129
H   28.853373   33.634884   99.648842
H    8.631713   90.943054   32.839104
H   20.413445    4.908839   19.684872
H   93.636337   66.495659   82.782417
H   13.780627   72.566696   11.896049
H   82.975716   13.705773   34.167183
H   24.240734    0.903076   50.398552
H   90.377014   13.303035   60.097862
H   55.888504   79.144150   30.654724
H    9.365651   78.929741    3.631809
H   61.665100   20.546154    4.336934
H   56.339283   67.014534   76.970711
H   33.007946   71.952995   57.449249
H   89.988792   41.853348   33.311924
H   91.897324   28.569044   60.708965
H   80.091972   37.337540   38.830097
H   54.515491   93.627380   64.361427
H   58.543026   96.970459   71.955612
H   20.861269   33.670113   86.027489
H   13.270832   58.741932    3.570937
H   80.984665   98.059410   73.692101
H   56.507725   47.115540   79.434593
H   11.888367   16.362514   44.065186
H   31.246059    7.199842   32.278954
H   43.161320   84.608475    6.387902
H   49.289070   97.549377   44.246300
H   13.084119   51.139587   11.082441
H   60.344429   25.232033   53.511314
H   40.776978   98.883553   43.079350
H   99.852371    7.248962   21.597992
H   14.752374   44.581444   33.811745
H   51.957901    2.432548   84.148056
H   86.509026   51.045624   25.787441
H   27.486828   13.948873   20.716072
H   76.618286   44.932232   22.685661
H   20.604277   81.179398   68.035889
H   15.139279   64.454391   88.959686
H   88.028725   69.131012   90.737030
H   31.732927   59.586521   63.432331
H   92.713860   92.515251   43.241417
H   84.483307   22.055859    9.620560
H   33.323845    4.864671    6.378852
H    7.296492   88.793739   45.136742
H   32.172836    0.834064   91.154022
H   62.497978   53.567230    1.880127
H   59.714417   84.788055   24.455151
H   79.416931   69.797340   32.933128
H   19.611507   31.450348    4.644996
H    4.399354   35.802425   82.251068
H   44.429878   29.563608   57.876965
H   23.101240   91.099312   79.900490
H   68.016983   22.212955   91.895943
H    2.433322   38.761654   73.737877
H   53.138763   35.335514   88.099213
H    9.183825   81.257248   80.261848
H   18.281815   77.038101   66.673729
H   35.654167   91.138367    8.403554
H   95.793365   42.073898    4.552875
H    7.701706   34.630882   60.731941
H   35.664494   93.593849   90.664902
H    2.696331   38.067200   63.107239
H   36.824051    3.061386   43.496010
H   59.945908   14.444197   87.100960
H   22.149263    2.572914    3.814364
H   29.625481   44.712841   39.559490
H   50.024021   73.332199   29.255514
H    7.501590   78.267342    7.518208
H   32.816528   17.974997   65.559761
H   69.729042   99.709465   31.531239
H    8.883437   97.339996    7.952820
H   63.820824   55.997692   48.254257
H   25.306677   59.014038   75.639534
H   69.381348   58.506786   24.224182
H   51.269993   49.708485   13.762370
