100
TIME:    7.011, STEP:  7011
H   43.196609   79.078621   92.727249
H    6.850153   84.779747   20.170841
H    0.283232   78.303581   41.043514
H   82.653381   43.797821   55.867153
H   32.374161   34.719906   75.608505
H   19.296009   93.612556   73.069626
H   85.523438   34.754093   38.722485
H   68.835518   95.143036   64.468132
H   81.284111   12.214402   58.770565
H   83.264229   17.052568   82.226753
H   48.108887   48.345280   64.413521
H   88.250092   75.115891   93.878868
H   96.681419   37.617611   28.372879
H    7.938700   83.466011   90.779839
H   65.761604   43.775749   13.744343
H   19.626617   98.521179   51.066895
H   60.324196   45.693317   11.627343
H   50.994534   53.683731   56.487045
H   54.461750   72.474670   32.728451
H    3.630951   56.923725   93.674126
H   48.234039   58.250931   66.949715
H   34.531738   53.391190   22.226837
H   92.135246   37.602211   31.758512
H   67.635841   20.700167   86.375854
H   78.831001   30.152687   88.317726
H   14.549816   19.416645   31.116278
H   57.513363   51.039139   39.077686
H   40.973839   83.689491   98.517715
H   63.618324   85.184944   25.757891
H   69.826080   17.317894   40.742607
H   91.981956   50.745071   54.691002
H    8.436108   58.802235   50.220665
H   64.203743   55.524055   29.403204
H   74.333092   31.206314   76.389267
H    6.471298   28.838936   51.607361
H   82.092079   34.560776   97.384132
H   52.244637   47.777954   60.904697
H   74.213707   30.647892   17.188736
H   49.136929   28.657743   64.894318
H    2.835978   55.837635   89.645432
H   56.099243   96.749077    7.521284
H    9.365099   69.096786   37.884083
H   71.623932    5.544836    7.886576
H   31.667591   30.321981   66.233147
H   48.503052   55.272091   56.060493
H   87.625725   96.640945   11.644197
H   96.508102    6.119564   92.762886
H   56.615536   67.581009    2.378852
H   69.966377   51.798222   64.804672
H   72.936768   37.445339   93.322670
H   43.020184   92.776398   27.332638
H   45.862598   13.169891   13.808055
H   54.302822   62.660889   95.680428
H   14.335022   92.810852   41.191727
H   82.568436   73.016090   59.982311
H    2.327951    5.158832   53.955811
H   40.718395   87.246819   22.792015
H    4.002501   14.784941   32.969223
H   43.219238   35.005299   73.249992
H   96.365883   66.677994   64.201073
H    1.959434   52.526558   67.762192
H   50.083839   62.684677   78.129166
H   50.037914   28.865341   52.705139
H   24.472095   79.954971   36.791500
H   10.600589    0.886866   48.473118
H   70.650665   93.735863   60.728882
H   25.063101   90.751038    5.552690
H   96.067879   18.503977    1.368942
H    6.328211   46.020584   20.514454
H   72.424767    0.773930   86.969971
H   99.400612   18.373413   78.048744
H   95.915550   18.823265   69.952324
H   49.861145   71.516647   81.987122
H   75.867592    5.693734   86.584137
H    0.199212   38.638500   32.880329
H   91.400658   56.913242   24.178419
H    3.530962   18.980427   15.082502
H   61.369854   92.288048    1.629750
H   97.717262   32.925205   95.901222
H   55.698807   27.097565   16.917137
H   48.067551    1.814092   99.020645
H   67.395515   89.938110    0.464563
H   61.338005   24.366735   97.634888
H   32.495548   12.105400   23.070889
H   10.951963   10.341937   68.114571
H   89.931625   66.582169   28.648468
H   35.403629   93.595650   57.854912
H   68.785179   44.046864   22.884712
H    1.180200    3.811430   70.849861
H   46.472469   20.823826   74.841904
H   10.941761   52.004616   81.521286
H   97.041901   22.773449   67.110298
H   34.871998   37.884495   61.175972
H   24.852943   38.522057   99.540024
H   35.377373   21.726700   77.191895
H   73.001434   18.875139    5.321596
H    6.102440   70.026657   33.980606
H   24.744471   33.363956   38.135895
H   74.725243   67.077400   57.793446
H   74.690559   98.721878   22.348240
