100
TIME:    7.811, STEP:  7811
H   89.096428    5.715267   91.994827
H   84.756210   28.130451   70.614883
H   14.034876   35.858063   31.650318
H   82.787659   10.836876   12.014647
H   25.205740   98.843437   53.916611
H    6.888682   92.745857   52.296074
H   43.595257   88.773514    1.283528
H    5.957100   64.351555   91.013435
H   61.618584   35.297668    8.411888
H   61.413643   28.539385   13.551159
H   73.694839   80.535217   87.354355
H   57.719048   15.215420   36.933067
H   45.668236   89.196564   48.870800
H   68.327217   81.000191   51.661457
H   75.478401   72.315811   75.269806
H   87.459366   28.550476   84.659454
H   95.992775   98.608688   84.454498
H   68.101227   14.755558   28.758415
H   66.920456    6.032764   74.874802
H   82.074356   39.937641   48.141792
H    0.760916   78.607849   45.238682
H   11.228517   54.453201   54.099472
H   81.454094   31.096289    8.867753
H   93.303268   30.270479   26.960686
H   50.217720   66.709839   94.225929
H   10.777843   95.835190   55.833282
H   88.527740   17.782389   54.952930
H   73.471581   21.030767   24.961946
H   81.013344   57.766926   87.942436
H    0.502320   97.516861    4.341066
H   23.466902   22.483437   91.397621
H   58.948574   36.701405   76.160683
H   20.552938   96.992912    1.473521
H    8.134736   57.891151   42.685654
H   86.561363   68.267723    0.278376
H   51.634403   97.219467   94.869484
H   28.975864   18.479670   23.941435
H   41.149078   16.005558   73.641197
H   15.366206   11.229155   87.368660
H   27.484886   80.943924   52.588432
H    1.425565   24.197493   26.368254
H   41.945473   72.233994   78.724907
H   78.508698   10.343725   65.668953
H   80.584564   43.749718   44.453335
H   79.108940   23.710812   24.518616
H   77.298576   11.897677   14.894320
H    2.759781   49.627205    0.441387
H   56.664364   75.820755   51.877956
H   93.355049   85.543159   32.889542
H   89.733643   49.621853   37.387146
H   42.965252   15.541861   35.766006
H   84.742889   38.935925   61.293335
H   70.895744   67.299561   49.220467
H   95.809479   79.761536   76.494461
H   18.871517   43.123779   66.785233
H    3.324350    4.317309   26.721924
H   91.435806   64.163322   98.878441
H   44.432297   39.235100   12.361115
H    6.310958   68.811806   11.835415
H   43.572838   28.167522   41.447166
H   52.424694   15.324289    5.389739
H   21.690285   55.238388   41.931595
H    4.348848   74.274323   97.846741
H   79.407707   84.312881   15.069154
H   42.355125   36.992626   22.973570
H   21.505810   53.965355    8.031379
H   60.877411   18.409470   44.177776
H   40.806648   64.256828   39.613571
H   46.202141   88.537697   70.341522
H   88.662102   40.970127   85.276596
H   73.997780   63.941818   68.454018
H   30.050854   92.243553   28.589678
H   97.698822   31.948706   61.478428
H   58.254841   55.060467   39.049957
H   38.734299   39.816479   93.537064
H   10.312091    8.184219   70.347145
H   76.188194   49.739288   29.270124
H   98.955307   39.980114   45.812695
H   36.078743   30.575352    4.827076
H   16.466618   83.516991   47.996529
H   63.728294   10.090737   46.835709
H   27.427998   95.126099   33.536221
H   11.937474   37.745640   73.823792
H   87.533562   80.563232   50.002445
H   71.999329   60.294544   90.564247
H   71.523422   95.964493   84.202667
H   88.833809   35.429146   96.001884
H   81.651390   80.030518   14.590034
H   17.784500   59.268135   64.306892
H   75.741974   87.909805    3.442509
H   43.681019   95.203606   98.415817
H   56.233799   82.941437   82.356880
H   86.153732   61.889622   23.041201
H    2.169367   87.057213   53.482494
H   21.544498   50.068466   95.575684
H   39.078186   87.284546   64.000603
H   42.601616   15.936772   87.970711
H   23.200281   72.946632   22.075659
H   36.614891   70.531990   90.783806
H   24.382853   78.189651   45.282253
