100
TIME:    4.704, STEP:  4704
H   99.210609   90.640633   94.839371
H   70.562386   59.768173   74.708862
H   60.612160   12.328738   68.128792
H   82.266159   38.846245   82.321175
H   53.037750   49.803848   38.159073
H   55.078869   96.111900   44.599270
H    6.434383   78.974655   58.311932
H   50.161171   95.558258   76.288704
H   37.994637   34.023056    3.986225
H   46.291862   83.925835   91.892395
H   62.700409   55.518147   86.636276
H   76.303123   59.477837   58.093056
H   43.895096   77.129829   57.608887
H   22.166615   90.576820   15.216052
H   37.719246   49.846985   24.654839
H   12.386169    0.299885   42.568298
H   45.839485   93.104294    1.612026
H    1.659943   65.935448   36.460888
H   18.534782   75.692841   11.188128
H   65.780632    5.921320   36.602791
H   85.134697   87.919098   29.569946
H   13.357407   50.328613   18.689194
H   22.938850   56.364891   97.762344
H   81.988907   93.098755   57.713966
H   61.341949   13.108307   71.279945
H   25.102835   87.593994   48.075031
H   56.448448   46.938107   93.301186
H   35.632114   76.006531   22.260492
H   13.455213   75.875755   34.810829
H   81.365829   74.415581   57.342964
H    1.186052   43.872120   37.213432
H   62.770641   22.546265   63.791206
H    1.700064   24.315031   21.570425
H   76.856506   42.629150   73.579308
H   63.842606    3.333687   11.169861
H   81.548508   53.866261    4.638511
H   30.974142   32.266098   79.122177
H   69.565407   72.869026   54.388744
H   46.516247   78.925652   88.459991
H   20.129560   71.811211    8.134859
H   13.766781   17.590040   53.169903
H    8.852013   22.975515   23.798357
H   51.759144   91.708435   41.248596
H   78.976944   91.602386   40.667580
H   48.618107   46.294624   58.644672
H   17.399654   52.638416    2.270126
H   78.484665   80.657066   70.620811
H   56.490635   43.819641   59.634789
H    2.535161   42.863979   56.831299
H   24.534634    2.329237   54.659325
H   43.185734   15.502621    3.014488
H   33.737312   27.242960   65.254456
H    6.446475   49.284119   29.667646
H   67.755333   30.454201   39.390221
H   66.255493   70.836678   40.357182
H   99.451981    7.585571   32.491547
H   94.465622   53.814842    3.376924
H   75.786026   32.653252   92.390244
H   61.270035   37.525116   50.355003
H   48.602551   89.352844   29.817635
H   56.432739   59.812603   47.634392
H   31.960478   84.157913   82.513428
H   93.414772   86.290329   10.903069
H   66.056068   67.387848   99.423553
H   19.031511   85.143585   33.632526
H   12.371323    8.423136   24.320517
H   10.157545   10.992902   94.170700
H   55.428337   86.563614   91.081001
H   91.348282   11.786880   65.207397
H   25.689714   84.740234   91.827850
H   72.659111   75.339691    5.719016
H   86.100739   95.408173    1.026175
H    0.281205   85.627419   41.138695
H   26.655056   51.701847   23.657555
H   88.970100   35.345882   57.993252
H   36.863960    9.054575   79.409470
H   94.047470   18.834538   74.241310
H   52.982800   43.137676   74.225044
H   87.086952   39.701595   70.168541
H   68.832123   52.764713   15.667297
H    2.921980   77.946701   61.135876
H   94.271553   74.948257   93.431541
H   15.412470   85.786804   77.929413
H   73.776764   14.690342   33.779152
H   23.283663   54.647972   91.752449
H   43.030216   81.840919   68.443222
H   81.324242   61.333801   47.848450
H   31.672762   28.680586   46.823647
H   53.305283   32.260429   89.718147
H   50.442295   15.739418   92.374451
H   16.529778   27.434685   32.801678
H   26.347174   49.264923   23.159273
H   86.989113   68.663399   82.772079
H    1.886582   98.564590   43.984875
H   75.261269   28.373909   24.178944
H   82.452682    9.976088   24.481438
H   89.221214   37.633434   66.657578
H   24.132360   56.289429   80.761604
H   84.625488   57.127392   51.028381
H   31.394503   57.918934   44.589329
