100
TIME:    3.786, STEP:  3786
H   61.290436   74.825867   95.679825
H   95.955040   10.014925   16.819380
H   44.832634   46.283684   78.900612
H   82.112076   76.666679   32.639126
H   61.260193   76.222099   63.050522
H   69.314949   97.106438   53.686852
H   54.544918   16.985851   86.523064
H   22.314163   16.139568   60.576946
H   60.560829   22.285049   61.773113
H   71.379417   70.744713   55.947403
H   48.090530   18.580189   75.062233
H   11.338287   13.463074   23.437189
H    2.435585   32.649261   48.831024
H   67.620415   93.406349   45.356945
H   26.553505   31.846184   68.784340
H   49.297974   80.591606   18.770243
H   19.659676   32.385136   18.042868
H   82.043907   10.587502   68.289734
H    4.236788   37.181160   62.821674
H   90.517998   25.416353   74.101128
H   39.610107   79.309326   54.482750
H   25.347855   49.109955   96.865433
H   35.195473   63.830925   24.028675
H   67.281075   82.088806   25.891781
H   94.175690   85.910538   64.500282
H   29.296919   14.799918   34.309097
H   35.607639   85.097855   75.091347
H   13.090507   33.157379   91.915886
H   93.493332   92.587784   78.206276
H   46.164810   97.135857   84.364990
H   65.060371   61.552555    9.842674
H    4.807615   47.906967   48.775063
H   37.038074   91.480919   38.869736
H   38.069550   26.758339   12.253239
H   86.660934   72.727501   55.268135
H    1.739209   81.895905    7.618259
H   42.925552   65.884262    6.787322
H    7.510854   89.664101   89.609291
H   85.264343   98.928459   77.420860
H    6.594913   57.751366   35.908710
H   76.505661   86.090744   31.542219
H   91.357010   81.776367   80.671005
H   43.851871   86.203461   74.939751
H   37.596802   76.222076   50.908493
H   28.248533   82.514771   80.088806
H   29.243053   35.128956   98.540565
H   71.312790   30.734005   61.808311
H   56.441608   34.364532    2.834169
H   75.697250   18.893433   93.448456
H    5.281230   88.362526   18.867016
H   43.255772    4.129299   93.335800
H   89.125717   12.426403   25.517887
H   87.408211   43.961243   82.984810
H   89.018822   45.435295   98.883087
H   39.346695   90.382751   32.547962
H   98.303360    8.551718   63.742432
H   36.267513   80.303154   16.067694
H   44.142570   19.346626   16.036285
H   88.870827   98.735825   20.829479
H    9.182702   18.792234   55.927742
H   98.523994    2.506673   19.209965
H   64.542076   92.702530   24.049385
H   31.091455   48.933525   73.853081
H    3.016785   62.389404   24.349857
H   82.595818   58.463345   48.143024
H   68.765205   54.059517   70.041672
H   83.810379   79.253357   49.850750
H   18.841042   34.063248   47.195293
H   45.596748   77.748520   22.780819
H    7.091166   38.567429   93.760895
H    1.808969   37.800789   16.732285
H   61.793098   25.875336   33.814655
H   60.137314   31.035168   64.678215
H   46.867977    9.793430   78.203026
H   44.709240   34.036175   88.402138
H   15.159303   50.220490   41.179623
H   10.698854   98.400925   58.006535
H    9.853496    3.162756   23.526064
H   43.064499   42.398052   59.926224
H   13.852829    2.759511   94.754021
H   84.963303   68.449570    6.269563
H   25.392410   68.953018   70.194458
H   57.339291   70.452820   90.497772
H   10.621374   36.135567   17.624725
H   67.982498   12.067270   80.742233
H   64.160583   48.121407    4.694469
H   20.013113   28.079887    4.074398
H   16.898279    2.178075   56.369804
H   34.254990   83.374046   97.226204
H   31.605009   53.510826   59.555664
H   78.961304   77.863945   13.415200
H   58.421516   80.231010    5.666674
H   28.143547   41.116333   11.781717
H   13.158560   42.881851   82.088707
H   91.131844   10.602200    3.085975
H    6.629698   46.225838   71.897057
H   62.087433   84.951500   19.452864
H   20.763540   48.473206   95.455544
H   28.356956   53.170254   27.919647
H   74.373177   81.477852   33.022308
