100
TIME:    0.958, STEP:   958
H   52.536537   34.167763   98.268936
H   74.621712   56.687626   38.430538
H   96.224213   42.826031   12.091377
H   81.637405   93.179649   87.652092
H   86.590332   49.545448   39.729301
H   13.160873    0.171001   73.620110
H    2.762476   26.026144   65.369621
H   44.589386   71.480392   20.233276
H   30.078529   94.185501   39.784454
H   48.659920   30.139313   45.205345
H   11.144196    4.789811   47.469749
H   19.275417   71.710335   24.737261
H   82.323608    3.746945   29.911768
H    7.647284    2.123533   30.144337
H   92.153633   84.452179    4.721348
H   63.005157   27.943150   53.518051
H   47.044762   45.351059   60.578773
H   21.616180   48.113190   66.334274
H   60.181885   18.541857   13.834566
H   66.717201   85.446472   81.544731
H    7.427469   60.846344   31.242813
H   54.207142   45.364388   37.683681
H   72.953346   86.830864    4.939802
H   30.032974   48.171452   35.925385
H   95.321037   10.197895   43.630859
H   42.266300   99.065018   99.380173
H   79.469818    2.653238   18.976629
H   51.707161    1.155424   98.438919
H   32.001938   36.008915   11.887459
H   37.726635   67.129379   59.546749
H   53.786747    7.951950   33.603569
H   26.245733   26.044167   10.577187
H   37.837940   98.390923   84.101158
H   18.579887   85.927803   31.391466
H   56.959236   86.502602   83.063995
H   55.849457   59.740673   17.347990
H   71.683006   69.452003   83.952034
H   24.395416   41.420055   90.045143
H    7.651413   60.057518   50.307701
H   72.959877   22.498232   13.407141
H   69.771713   89.053108   64.914597
H   45.521599   54.854836   47.808521
H   19.492651   69.244781   70.669594
H   18.184557   28.826048   74.401619
H   73.555382   94.093826   38.086998
H   65.716240   81.213432   87.075096
H   46.195667   77.420120   35.809273
H   56.290577    5.246942   27.853514
H   93.034782   53.106888    6.258161
H   45.982113   45.330769   16.661552
H   43.471531   77.154686   63.517872
H   51.689568   74.844330   11.170204
H   28.751879   27.563538   47.231232
H   54.505383   91.573311   74.090652
H   64.494675   42.488377    8.535383
H   94.764908   11.525133   60.014221
H   56.983513   61.904305   47.101265
H   54.723816   86.416191   88.878983
H   65.831215   79.246124   37.937153
H   95.801300    1.421919   36.361778
H   20.132044   34.019798   39.702179
H   64.909851   19.028427   52.009636
H   39.213478   41.825478   67.835548
H    8.822973   47.005768    1.128469
H   70.348473   84.330437   84.778084
H   42.493782   94.648140    2.830211
H   10.706285   81.482513   13.314392
H   14.190326   72.326035   12.000541
H    4.647587   80.950562    0.147307
H   49.792274   96.327293   99.715851
H   91.610756   30.219175   50.657719
H   94.975967   19.731544   26.761488
H   44.528763   70.918526   37.184330
H    9.105212   88.755524   46.271812
H    8.361630   30.006819   74.020683
H   48.308102   68.972679   31.468761
H   53.935764   43.513298    7.985558
H   76.988907   88.079628   67.348312
H    7.470823   50.696140   28.370499
H   52.543442   56.780762   38.388550
H   29.629223   39.192608   37.245541
H   13.202232   50.484024    6.669964
H   78.411674   23.246691   21.144505
H   16.070990   94.138893   75.927345
H    5.682364   88.960297   54.885078
H   29.242947   44.244076    8.309702
H   31.137381   33.698524   69.224213
H   71.377075   28.594166   85.782997
H   75.563667   40.831810   20.362244
H   81.636978   69.864212   58.460857
H   63.227848   25.161425   53.692944
H   49.169254   67.556847   51.775673
H   46.750694   56.334213   93.028069
H   39.822380   71.343620   91.411736
H   40.029545   63.918877   38.099541
H   73.048447   57.900505   17.967232
H   86.561050   22.657881   82.093475
H   10.382602   24.394470   40.708176
H   63.075127   40.979855   64.803108
H   98.736465   54.097424    5.416595
