100
TIME:    6.596, STEP:  6596
H   71.261795   17.135866   93.107193
H   18.310249   62.293163   94.004066
H   93.146729   48.446327   45.916294
H   82.583725   60.895294   78.614258
H   36.091278    1.455901   86.861176
H   25.732891   94.062157   31.969898
H    7.274562    6.730311    6.268924
H    1.453703   59.238766    2.570329
H   91.485603   52.114914   84.892342
H   94.599220   11.093130   65.977821
H   86.711182   31.646749    4.389759
H    4.088203   54.313969   23.418331
H   23.162338   62.717297   69.609795
H   28.486057   84.745155   59.199688
H   60.721016   80.845604   33.700893
H   36.313660   34.818825   85.515137
H   93.695930   18.245541   73.848244
H   42.119678   73.877747   70.872597
H   47.999538   55.065285   10.865848
H   14.810799   65.735878   65.418968
H   72.860733   99.563934   78.215050
H   94.745285   52.840271   57.567947
H   97.676094   40.977379   43.631790
H    6.194088   15.735567   17.196833
H   93.674141   63.065323   85.252846
H   16.478033   31.665176   70.158150
H   93.298317   68.290970   30.842405
H   75.989914   64.318687   84.801743
H   54.594658   47.532513   45.375153
H   53.912769   27.589043    7.751977
H   75.650703   13.532004   87.524483
H   82.232788   70.268768   88.639320
H   34.970249   85.887901   92.016724
H   56.798683   69.238693   93.873016
H   16.800110   60.260292   26.356928
H   46.016415    2.055403   98.688606
H   12.441575   62.975708   28.204199
H   91.368172   38.243603   87.903145
H   66.655029   37.699821    5.111206
H   41.923878   94.687561   56.994907
H   84.462051   82.507515   97.744606
H   44.339081   67.469360   16.697903
H   68.052460    3.055337   77.909630
H   58.165508   23.356344   25.657888
H   84.501366   71.645981   20.547895
H   92.982933   88.725449    9.958197
H   93.265915   83.550552   88.779808
H   56.591679   63.306641   76.701035
H   57.835114   86.169350   81.357559
H   64.223389   31.128553   22.339266
H   43.048679   32.842682   22.958534
H   25.690250   51.680367   41.049965
H   45.693928   60.254578   19.782858
H   23.944435   99.580185   22.879223
H   15.611542   36.646751   56.452000
H    1.811069    5.595371   68.083389
H   14.410399   99.221382   83.321877
H   34.903473   53.976845   43.658310
H   10.490109   17.467724    5.108370
H   23.751221   34.778805   76.004662
H   75.781242   71.825821    0.120728
H   64.812996   66.547440   96.904724
H   21.862482   57.183998   81.162933
H   95.974838   77.694305   48.060001
H   94.128815   34.032398    9.825587
H   96.144897   14.366266   36.190842
H   58.359177   76.401825   85.516617
H   24.735085   94.769020   81.529541
H   85.645790   75.839844   46.543774
H   64.015343   79.902275   87.843842
H   12.579285   46.609573   83.026009
H   30.097059   32.616730   39.550102
H   76.919479   92.041962   92.625549
H   85.005241   31.958900   11.241896
H   80.190056   38.045193    1.419137
H   81.591774   30.314106   52.101570
H   65.840424   54.900951    7.722659
H   41.872402   19.423594   78.712624
H   77.814537   34.144192   91.272240
H   76.051132   49.704567   52.669853
H   39.946251   97.520309   74.216644
H   36.255608   87.246841   35.183300
H   35.087051   17.426428   58.113922
H    3.944379   76.593040   60.973454
H   31.159288   36.301773    8.344145
H   99.480881   51.337456   99.829315
H    7.686719   23.769859   38.066170
H   62.110832   77.255859   27.187576
H   92.567978   26.917181   74.244026
H   83.163895   37.899136   60.005951
H   93.958122   29.597260   72.757248
H   66.336105   91.561905   59.203056
H    8.269826   25.431835   29.083384
H   84.744759   13.344529   71.557159
H   42.551979   58.901039   67.655304
H   38.724167   35.262115   26.757156
H   39.042564   46.210510   57.847412
H   25.545519   12.829682   46.466164
H   94.494987   65.285332   92.552544
H   48.913219    9.371288   62.327831
