100
TIME:    9.932, STEP:  9932
H   45.661041   11.210307   90.052994
H   26.178371   43.065311    4.348676
H   50.492802   88.452141    6.752892
H   83.143661   23.452570   95.755264
H    6.200045   68.850586   96.409370
H   74.004395   90.448021   62.345932
H   32.434338   31.994509   67.148514
H   39.250687   47.845539   96.269920
H    9.480354   31.370716   74.904320
H    3.478302   58.993809   96.598701
H   76.404510   65.876678   83.046043
H   76.765419   21.529713   85.958748
H   10.418976   60.816986   38.093102
H   63.308243   74.462685   13.069103
H    1.240244   82.857635   73.268822
H    2.177798   43.039963    8.597789
H   25.434761   38.895020   77.537491
H   13.457259   11.547714   55.233452
H   99.963989   95.011597   86.629318
H   24.930790   94.895721   92.549370
H   74.897263   67.456978   87.670441
H   14.570862   57.268860   73.476746
H   53.135315   13.851665   48.205093
H   96.231613   55.643768   69.438675
H   74.359360   98.502365    9.885139
H    0.774050   33.308151   56.237080
H    5.631126   29.614832   97.029465
H   94.508675   20.031895   95.070335
H   27.133022   50.200565   87.681534
H   81.830376   45.022629   72.954201
H    6.941411   12.677805   23.590866
H   92.869980   78.099701   79.809105
H   69.955238   41.809631   92.549950
H   97.752151   63.514153   53.331703
H   33.775856    7.678174   29.324064
H   36.008686   63.352657   88.202522
H   32.407341   40.804451   91.068192
H   53.482586   77.196144   23.314980
H   25.838551   65.015465   81.828072
H   27.710392   82.382324   19.463362
H   56.469437   96.975037   76.338097
H   63.198769   80.556961   86.995842
H   96.761932   23.069027   18.871716
H   45.160748   79.357460   51.830639
H   95.100983   39.996006    6.005310
H   49.927048   52.348522   23.511206
H   19.342648   64.978882   20.809408
H   56.793819   97.666382   83.113068
H   55.350174    9.885012   48.263153
H   34.255356   81.913811   89.087563
H   46.585133   11.055634   52.342361
H   87.823929   42.123337   22.061808
H   14.882307   79.597839   26.036907
H   46.686798   45.155724   70.088081
H   49.994484   28.997545   84.811920
H    5.966053    2.086224   54.518066
H   25.897865    2.962508    0.603197
H   86.498978   38.932533   57.729881
H   73.597206   58.435257   49.005825
H    3.610210   91.194275   81.120888
H   86.222351   16.687536   40.026302
H   46.411827   35.496414   45.964600
H   48.372051   29.586390   52.424454
H   25.052380   95.866791   57.488510
H   26.540352   67.591408   20.492418
H   91.211700   48.524406   33.442211
H   90.705116   91.737488   46.579540
H   94.294441   85.558723   41.009644
H   51.912788   36.136154   37.315357
H   31.738724   47.501949   80.778015
H    6.637265   19.622227   43.015999
H   55.390274   21.819725   84.056976
H   59.407562   27.032900    7.090908
H   11.569927   20.824394   13.028112
H   40.904579   42.939594   54.352482
H   60.459480   44.121166   27.632069
H   68.820259   66.161423   66.891319
H   98.595451    1.300757   62.958908
H   37.788521   24.345303   28.499353
H   12.451236   67.976082   65.270576
H    5.250675   32.033459   73.605553
H   86.584953    8.890023   56.091858
H   46.094612   73.216469   75.816925
H   33.455082   62.062088   56.281860
H   68.726151   27.613922   84.958344
H   22.704983   73.874352   31.491566
H   30.490740   81.214531   97.139168
H   15.761446   10.309075   92.604156
H   61.802006   41.173973   46.959846
H   88.216644    0.645005   79.260681
H   30.481680    9.729854   43.207787
H   13.166323   42.460464   22.770571
H   22.113712   25.524008   87.061394
H    3.385648   15.450566    2.284148
H   84.871872   60.082527   44.311714
H   14.264113    3.529047   54.448242
H   74.246971   37.654709   65.989609
H   19.106249   77.895203   79.488976
H   35.575310   79.690971   13.127956
H   56.124992   23.764328   40.959110
