100
TIME:    0.285, STEP:   285
H   98.049477   95.885445   98.885086
H   93.342400   20.196980   95.978271
H   84.661133   94.408211   19.993500
H   81.524445   20.908327   24.541094
H   92.618332   95.601532   57.977608
H   23.596912    0.903463    6.969627
H   38.033665   80.582497   12.740066
H   97.485855   13.258640   82.026482
H   46.622154   58.891815   82.147697
H   67.051994   20.478596   18.849535
H   73.745026   77.710175   12.297176
H   44.963734   37.976128   72.642525
H   25.133881   44.464569   96.802574
H   40.970402    4.198546   78.929008
H   83.969109   44.565155   37.072636
H   90.064407   86.809151    9.382221
H    1.152956    0.844601   99.303688
H    7.234964   80.841019   89.665817
H   49.702202   90.308731   78.377029
H   84.934700   99.556305   35.631294
H   47.364243   27.844696   49.506630
H   89.675392   44.476105   94.987984
H   81.938866   92.304329   24.196316
H   92.561920   40.099888   85.908295
H   19.390089   63.571880   38.662979
H   45.352116   19.117493   62.459618
H   37.502789   30.629517    5.621694
H    8.493851   69.742020   76.195908
H   17.368378   74.949486   43.699707
H   11.922017   83.785965    6.045619
H   27.312838   47.599815   86.859459
H   83.752502   44.636490   72.880211
H   90.432678   47.629997   23.472006
H   90.143852   47.604095   59.744576
H   73.687706   37.376450   42.082504
H   97.334373    6.873793   19.663687
H    7.134577   94.098000   30.922070
H   52.209450   53.737919   42.552570
H   37.907787   74.424080   14.810365
H   36.349766   85.502556   60.458328
H   15.765545   65.957756   49.054165
H    6.007004   24.648088   16.189764
H   13.696218   65.209000   22.059273
H   61.160187   17.547937    8.597721
H   31.934155   20.647156   80.495544
H   74.311531   68.561821   84.435921
H   39.089405   41.115383   30.058538
H   56.254635   98.317047   86.212143
H   73.359062    8.846165   33.104897
H   31.867147   35.087276   63.730270
H   43.522877   42.128944   56.421879
H   18.983297   37.292953   55.353287
H   14.791059   23.661255   86.317879
H   70.086838    2.551957   44.392231
H   18.070282   83.489639    2.824510
H   93.922836   12.232456   82.924728
H   14.320217   81.323296   83.093254
H    4.837524   49.971992    6.213802
H   12.754860   50.810806   89.603912
H   40.211159   49.694580   55.503502
H   77.678574   65.315292   92.175232
H   88.795929   25.292618   82.459732
H   93.563988   87.718376   14.006017
H   62.611000   43.344810   19.402449
H   43.634460   38.081646   22.102343
H   83.837440   28.104939   63.037289
H   64.702568   58.213863   80.821823
H   60.678886   33.837204   79.827248
H   71.107903   29.308037   42.358250
H   36.159958   62.479897    1.131453
H   12.982225   76.013069   58.729282
H   50.466976   42.066978   77.488564
H   88.408905    4.210506   54.441662
H   23.917885   31.344007   86.270210
H   75.911911   29.049219   23.003014
H   32.396030   25.838015   76.752121
H   92.830963    1.842231   96.075989
H   45.370148   32.084965   30.179531
H   75.214333   52.666553   20.866306
H   85.548538   93.432426   96.368256
H   16.459019   32.230114   97.022781
H   62.707928   46.088821   62.949181
H   35.828846   12.014337   57.044678
H   69.776154   36.549412   37.398567
H   38.452972   31.056938   20.124783
H   44.734074   19.522261   61.574543
H   86.189217   82.631096   37.133068
H   60.543106   82.476311   92.776299
H   61.597603   78.303993   25.869083
H   41.137886   97.560150   34.400204
H   35.685947   88.820755   39.480419
H   99.373741   16.940897   38.954620
H    3.570542   36.170708   40.963402
H   74.774605   30.519571   46.034328
H   51.664509   24.200871   22.635735
H   17.461456   84.477104   52.728355
H   39.980095   84.036049   20.798393
H    7.911607   18.664276   51.475395
H   95.135460   38.078815   21.178982
H   56.940960   71.383369   70.236435
