100
TIME:    6.641, STEP:  6641
H   68.218582   13.009235   93.065994
H   17.067593   64.731682   96.841286
H   93.920578   51.683861   45.387920
H   82.591278   59.041351   76.147827
H   35.688217    5.062808   85.641006
H   25.034916   94.013405   36.426571
H    4.916149    9.768993    9.788004
H   97.916786   63.131702   98.438622
H   90.379417   47.788361   82.059929
H   93.370125   11.739349   67.739754
H   82.525391   33.457432    0.055152
H    2.370580   56.569599   20.215302
H   20.290787   59.995777   65.138359
H   26.258064   84.606453   62.624332
H   61.267586   76.825981   31.536930
H   34.504349   30.882973   81.779785
H   90.077309   21.221806   77.944771
H   43.082012   71.688034   69.312538
H   48.700260   56.953217   13.236491
H   13.598526   64.780067   68.482780
H   70.190369   95.084259   76.993507
H   99.059479   52.900009   53.735779
H   97.075279   40.611397   42.344330
H    2.012922   16.273897   13.854702
H   92.064644   59.496483   85.585182
H   16.272898   30.334801   65.926353
H   89.418083   66.420547   31.735388
H   72.192764   66.419136   86.289017
H   55.573128   51.615307   43.247925
H   55.638309   26.475304   11.329231
H   77.421562   17.567196   83.964226
H   85.074127   69.025253   84.473442
H   38.140148   82.595436   96.070679
H   58.700005   65.114700   91.977188
H   15.680166   56.853157   29.094927
H   49.928234    5.580071   98.547157
H   16.757656   61.327759   31.750036
H   89.508049   37.419971   91.078880
H   64.755768   36.719292    0.750462
H   37.685558   90.474991   60.535595
H   81.386566   84.051781   98.804787
H   40.546738   67.645828   18.995247
H   68.439728    3.325296   81.160210
H   55.292240   24.111654   30.057741
H   80.597786   69.870316   24.398775
H   92.402031   89.583755   10.141016
H   93.617477   85.997757   89.211708
H   56.594082   63.770126   79.485382
H   59.150383   82.442238   79.562668
H   65.168213   31.813654   19.192884
H   43.045589   28.498137   23.432835
H   27.877731   47.504532   38.096016
H   46.627422   60.515503   17.169313
H   22.902451   98.846161   24.864830
H   12.028454   40.590500   56.834805
H    1.867117    5.548036   66.551483
H   17.263117   97.922935   87.601738
H   31.552668   49.727196   42.499252
H   14.039123   19.369389    1.653800
H   20.781822   38.237782   74.724754
H   78.619835   69.732925   96.611984
H   63.215858   66.128586   94.868820
H   24.917540   54.113319   78.077148
H   99.064743   77.939438   46.838116
H   95.914780   30.438229   14.016356
H   93.380463   12.129261   38.851593
H   54.748795   77.957764   87.689163
H   21.626640   97.342567   83.680801
H   87.888374   72.606430   43.721317
H   64.927208   82.165459   87.749084
H   11.150290   43.547821   82.486305
H   26.386599   31.123276   42.844971
H   73.985443   89.815857   91.471985
H   84.014412   29.110867    8.568270
H   82.359856   38.109394    4.830523
H   82.655388   33.198261   49.073807
H   69.927338   51.005955    8.520727
H   43.986584   16.481146   81.197594
H   79.972664   34.012012   91.774178
H   73.844254   47.253242   48.793053
H   40.826874   97.985855   76.906235
H   39.632187   87.538666   31.418739
H   37.933540   18.178991   62.399620
H    7.040292   80.443748   56.863537
H   28.968031   33.486870    3.981972
H   98.445419   52.990555    2.954301
H   10.692171   20.497993   40.211937
H   62.834557   73.655090   26.721001
H   93.501816   24.411783   73.875984
H   79.185471   36.047596   61.614418
H   95.799706   32.027122   73.707565
H   69.665649   94.946381   60.060333
H   11.154338   26.782124   32.563301
H   89.093971   16.074549   74.591446
H   41.774010   54.870087   68.689392
H   42.440979   33.485077   24.432861
H   35.470634   48.792984   55.259445
H   25.458658   15.056302   45.562881
H   92.351280   65.479652   88.783546
H   51.708210    8.216522   57.992695
