100
TIME:    2.130, STEP:  2130
H   73.279205   26.689377   97.195938
H   42.020454   20.229582   12.359751
H   16.367605   27.144375   98.332130
H   81.834122   44.894737   23.410225
H   76.092834   43.486408    7.952181
H   94.987801   98.900505   89.686729
H   41.336895    5.164541   57.021629
H   52.472496   72.873352   12.623903
H    1.268486   81.502518   66.012474
H   16.633074   46.967003   91.097557
H    2.127619   51.947620   34.577312
H   74.545471   30.456377   41.312904
H    7.773662   32.839561   13.424568
H   49.616264   98.510597   19.333668
H    6.408274   79.767181   48.385933
H   15.881969   25.431648   56.233170
H   52.818634   22.857307   67.284363
H   46.661743   91.118599   25.702721
H   78.438866   67.711319   75.578339
H   35.132309   60.578732   61.352943
H   37.879410   44.169559   99.432831
H   66.585526   46.911591   37.889084
H   57.305458   77.299065   71.408279
H   21.141472   62.227726   48.882446
H   53.402580   17.245964   52.277435
H   36.892368   64.138931   89.527229
H   78.407021   53.936947   42.233860
H   52.818108   55.860912   37.178005
H   57.485641   42.341988   56.485802
H   82.667366   38.122665   52.717281
H   99.889900   13.053663   40.864475
H    0.246822   93.663872    2.079313
H   20.391624   12.641506   89.684174
H   68.098747   78.521011   82.017929
H   27.826698   97.908325   54.429443
H   57.749889   51.807461   13.317636
H   84.093536   26.531511   76.301025
H   75.953331   19.969036   72.748817
H   55.166550   35.006348   37.899055
H   62.570286   12.779477    5.617723
H   89.679558   29.269186   92.526413
H   40.188934    7.452287    2.871053
H   29.587774   76.272919   55.324669
H   43.343910   48.470131   88.994064
H   71.893059   47.850735   38.380859
H   50.607616    3.543262   91.819130
H   58.369801   40.674835   45.901756
H   56.353168   17.313700    0.370290
H   27.292280   56.041897   59.509499
H   70.560326   63.169361   34.689442
H   43.382114   64.005791   75.875229
H    8.647207   66.091949   34.231571
H   53.064224   34.359192   79.163261
H   27.367474   72.456062   25.806963
H   71.191711   45.232433   18.480177
H   96.231339   10.293421   20.116577
H   31.284494   28.086983   58.568184
H   67.452728   75.735275   58.691971
H   58.264389   28.766901   47.962486
H   18.461292   91.506317    3.028160
H   94.062332   79.516426   48.323551
H   23.314228    8.117998   98.977386
H   18.709011   61.903328   87.431808
H   89.302673   53.381165   69.313759
H   16.864700   90.724365   93.923798
H   70.496010   36.384346   72.127571
H   16.674669   22.002974   69.898636
H   33.232231   39.354675   68.028915
H   63.063019   96.738121   26.642372
H   73.535950   55.277069   97.247955
H   54.395607   50.474648   36.601147
H   98.339417   80.834442   12.569906
H   68.111633   12.948742    7.131443
H   83.315056   14.588525   76.616325
H   64.865623   31.674437   62.866436
H   76.014397   44.085999   52.606846
H   60.346039   41.932854   28.719572
H   32.051601   11.444750   32.071957
H   63.651817   47.262249   41.442276
H   95.066048   92.949524   37.419716
H   52.564556   51.317486    7.294163
H    1.138713   58.138077    8.667955
H   52.568035   42.809021   32.771763
H   96.694221   94.428444   68.877899
H   48.616455   15.650761   41.272766
H    2.266225   87.293282   89.696815
H    9.412619   48.484573   25.110044
H   90.243958   34.761475   73.597359
H   99.884956   75.577324   10.773542
H   78.018265   21.640808    0.361376
H   11.191040   88.445419   78.443436
H   35.886616   55.700626   74.107018
H   21.948692   91.455063   83.697586
H   53.101048   42.433163   70.432503
H   19.765064   58.938103   65.031792
H   69.850845   11.620281   57.431702
H   93.533279   89.916969   14.691271
H   14.685771   34.373352   21.955139
H    7.245094   46.031887   66.629532
H   71.521530   23.992077   92.536041
