100
TIME:    9.295, STEP:  9295
H   88.739410   69.625832   90.636185
H   43.770493    8.545532   64.185966
H   39.543392   42.623055   14.231100
H   83.036743   49.696953   30.671549
H   11.908026   17.792221   13.680561
H   83.879761   91.138130   99.260529
H   65.817421   88.980598   17.334286
H   89.317627   92.737930   54.758469
H   25.139030   92.615509   14.999701
H   20.879251   49.847431   71.657570
H   35.656769   40.245438   44.406258
H    1.074980   89.601067   31.300262
H   51.038391   99.375221    1.396415
H   94.849152   76.426094   64.594933
H   93.503059   39.757607    3.905238
H   27.791912   98.754135   61.474670
H   76.658363   96.763588   19.548872
H   99.834763   42.544136   77.315018
H   90.040024   68.291733   53.057110
H   42.091183    8.424219   49.179405
H   12.698128   30.870764    4.961813
H   53.501049   56.423233   27.723145
H   61.640556   19.032675   66.409576
H   55.419018   48.023407   16.746355
H   97.142685   49.021141    5.183162
H    3.779002   52.086899   16.180738
H   60.561684   56.096340   84.393661
H   48.256157   90.298889   74.017143
H   13.282001   92.407372   17.792339
H   57.404396   60.788223   22.314255
H   81.872917   55.555714   73.988281
H   52.649250   95.702347   38.779350
H   25.084206   88.416306   35.163963
H   70.837891   21.891296   80.168205
H   49.628929   55.908058   90.567764
H   80.636108   13.456716   90.204811
H   71.309753   64.132088   40.874897
H   79.811714   88.850243   78.363091
H   52.728512   78.895409   43.557587
H   87.708252   42.016693   69.346878
H    0.004636   75.115097   61.330654
H   16.882065   78.053513   54.486004
H   91.279938   19.246696   72.859520
H   85.830849   68.665627   89.549873
H   50.382988   65.171333   51.511539
H   58.145180   40.198711   20.923296
H   14.361625   30.332731   14.692934
H   56.754940   91.105484   43.699085
H   36.731697   62.637249   73.694061
H   20.885702   72.213402   33.626163
H   43.037388   72.285164   51.146820
H   56.866207    1.231598   63.877174
H    1.669438   75.904297   63.035118
H   61.436668   55.551102   41.978279
H    0.712677   73.174850   79.397964
H    5.172670    2.756286   76.203049
H   85.514557   21.343437   40.019371
H   33.930603   99.088676   74.136986
H   23.355732   31.516180   97.907875
H   45.644054   42.233234   99.238686
H   46.038326   46.310032   89.687355
H   69.020195   41.425522   74.786995
H    5.097733   73.008812   96.084412
H   81.311340   92.396805   74.781952
H    1.256566   18.466778   61.171589
H   30.342304   80.191673   95.777306
H   41.813583   69.712311   15.824661
H   38.296631   49.128731   10.557358
H   20.162905   81.906921   77.267181
H   18.801605   15.509047   82.129074
H   26.867222   62.967892   50.655800
H    7.846971   42.970116   37.365597
H    0.940489   58.540173   23.425114
H   25.590809   61.138142   50.875984
H   10.220742   42.001629    6.054805
H   45.398575    3.294644   70.492722
H   10.966941   21.294209   55.593239
H   68.668037   42.950386   27.777916
H    7.243561   26.216373   21.389284
H   43.689445    2.676077   20.148552
H   92.780602   25.443399   35.532906
H   38.785301    4.754704    9.384558
H    5.802527   62.563511   15.151441
H   89.630226    7.552275   14.463236
H   99.742188   67.460861   46.707596
H   37.367374   50.475868   87.256119
H   87.946877   27.529945   66.764641
H    5.517794   61.280861   99.203934
H   48.583012   76.641701   52.169685
H   44.536236   26.854576   56.488678
H    4.412507   75.332367   29.755516
H   66.034775   94.552628   10.635339
H   81.280991    6.409925   37.801201
H   45.416542   77.075729   53.811337
H   95.884460   17.139759   29.674009
H   61.650482   28.682085   87.349930
H   24.808811    1.099916    2.623808
H   20.335810   46.376453   92.280296
H   65.920677   76.940254   66.484840
H   16.560349   40.109478    2.322494
