100
TIME:    0.842, STEP:   842
H   60.381264   44.805580   98.375137
H   77.848457   50.397861   31.113279
H   94.231171   34.480389   13.453407
H   81.617935   97.958702   94.010002
H   87.629333   40.247536   42.874626
H   14.959656    0.297246   62.132542
H    8.841925   18.192923   56.298267
H   53.706757   61.444607   30.884369
H   32.930031    5.338488   47.086670
H   51.830025   28.474167   40.662590
H   21.934235    0.122417   58.642998
H   23.703121   65.895821   32.994011
H   89.702820   10.765291   41.440872
H   13.390776    2.481188   21.316364
H   90.742928   94.813873   10.297573
H   67.669159   38.089787   63.146957
H   56.370995   37.679794   50.017067
H   19.137268   53.754242   70.355759
H   58.375580   13.675189    7.723569
H   69.857216   87.878479   73.630974
H   14.311066   72.394196   34.390900
H   43.084339   45.211281   47.561275
H   74.502113   87.774284    8.258810
H   40.810623   46.780216   44.540955
H   99.469963   19.397572   42.775055
H   42.798191    2.521421   10.252839
H   89.472198    7.475340   16.674719
H   61.494484   95.740906   94.605057
H   29.479660   25.484652   17.370537
H   33.278576   70.000351   50.324947
H   49.223637   97.549294   42.782890
H   18.921392   29.248787   21.315895
H   29.666771    6.877890   73.650963
H   13.678599   96.558540   36.278435
H   59.842598   95.271278   75.999847
H   45.763885   50.628613   17.747129
H   60.556934   73.700050   74.811653
H   29.189514   43.543194   81.858803
H   12.866547   62.533775   61.426079
H   83.886208   33.357800    4.280478
H   77.699631   85.072334   62.181095
H   55.947014   49.648323   42.358631
H   18.493475   68.549164   62.290504
H   25.591646   26.882124   63.059334
H   83.617943   98.671097   28.160013
H   67.197746   79.032768   86.620201
H   44.970814   71.163101   34.818062
H   56.284382    4.052621   20.676085
H   89.643425   62.713669   10.885655
H   43.549221   43.565174   24.774437
H   43.480381   88.353600   62.294788
H   46.052055   85.607819   18.785713
H   26.345537   26.890930   53.968811
H   57.191387   93.465462   68.971756
H   73.728867   32.318729    7.551031
H   94.619766   11.647043   63.963135
H   49.629967   65.251411   36.068733
H   63.361511   97.370842   91.866776
H   56.682693   74.344940   46.843006
H    3.456302   92.506195   39.661095
H   12.814436   39.413933   48.746094
H   69.026917   20.108139   57.258629
H   31.344894   49.735695   75.793556
H    0.857361   46.374756    4.278219
H   65.744652   93.594719   73.975655
H   49.619881    0.414861   95.971474
H   20.013491   77.471649    7.713613
H   22.203255   65.692001    6.455070
H   98.866112   89.285583    7.422773
H   47.442574   90.493309   99.960114
H   95.294167   38.112476   52.048954
H    4.540836   23.581337   18.268492
H   52.092056   76.656929   40.158848
H   11.658244   96.095795   53.166039
H    2.768929   29.841764   65.227226
H   45.565456   61.538307   39.273693
H   43.403263   53.567009    5.932999
H   71.539017   95.664162   60.942188
H    1.910416   51.035984   27.077057
H   58.232285   63.098846   48.382080
H   27.359173   37.992535   30.312481
H    4.498604   49.726456   16.370327
H   71.071404   21.310732   10.096161
H    8.091076   84.212624   86.522682
H   11.330763   96.215607   66.130013
H   31.913021   39.982754    0.254147
H   23.390005   42.132668   63.692898
H   69.509705   37.881294   86.988380
H   73.156441   47.290611   21.311417
H   91.892471   74.637955   54.313702
H   58.480656   18.897768   51.243237
H   40.586430   58.832420   49.565804
H   39.307762   52.858780   84.054070
H   28.610193   64.307793   83.590019
H   42.034977   74.308899   35.433891
H   63.467331   62.481316   23.958748
H   95.768692   16.000837   88.764679
H    9.956691   23.406799   42.564041
H   68.601128   40.479824   74.520515
H   91.532486   57.077251   16.589216
