100
TIME:    5.630, STEP:  5630
H   36.588051    5.722408   93.991592
H   44.987740    9.944303   33.094685
H   76.534760   78.948944   57.258717
H   82.421585    0.693329   31.563026
H   44.743652   24.026751   13.053164
H   40.716091   95.108696   36.303982
H   57.900555   41.502651   30.726412
H   77.379395   75.667953   91.265678
H   15.231789   44.991898   45.698883
H   20.987219   97.221825   28.154371
H   76.566147   92.778000   97.439690
H   40.960289    5.893486   92.179924
H   84.804977   21.133385   65.596611
H   76.317055   87.722633   85.685448
H   48.980568   67.133194   80.144012
H   75.153534   19.308792   65.701874
H   71.375984   54.350452   85.909454
H   21.461584   20.881920    4.361391
H   32.957378   14.537684   59.970707
H   40.834251   86.253944   99.649239
H   30.184532   95.732483    4.436852
H    2.133926   51.557892   39.831757
H   10.574641   48.833794   71.269272
H   95.949577    4.179415   88.940414
H   28.222481   39.672966   78.118690
H   20.881605   60.223907   60.996979
H   76.598267    8.443722   11.673464
H   57.497944   19.229057   52.872353
H   33.590172   59.889561   91.039642
H   16.872681   51.497307   30.956974
H   37.631157   26.908813   63.951256
H   21.238712   96.962891   78.066765
H   66.927971   56.564583    4.991818
H   15.982205   57.766808   34.567375
H   40.825424   33.335373   67.554626
H   62.043827   26.394691    1.725923
H   19.789600   98.351685   52.087261
H   31.294254   55.924221   19.735477
H    7.426976   58.748528   98.723854
H   32.910656   85.121635   80.991539
H   50.480789   49.360535   74.986061
H   25.748394   63.681801   67.379265
H   59.735325   97.261383    8.135362
H   19.849682    7.142306   31.207808
H   68.293983    9.762141   37.885113
H    5.451061   70.300461    6.033675
H   85.719040   31.017159   79.508354
H   56.540089   53.357147   16.930380
H   29.600662   66.172180   19.890518
H   43.955822   16.423552   89.894943
H   43.115086   26.103571   12.776303
H   78.740211   41.317562    4.461882
H   25.654911   54.653381   75.888268
H   46.312370   15.342629   80.253136
H   92.525597   51.991795   48.234455
H    0.607880    6.611509    0.968315
H   53.168350   27.095695   91.447212
H    6.834443   45.203865   68.539413
H   34.302742   76.650261   79.265495
H   87.497025   60.529758    3.479988
H   14.845116   16.751278   75.436211
H   99.098213   75.538834   40.615105
H   56.282085   23.102087   47.404449
H   29.641197   72.432129   74.286926
H   55.788521   11.185005   19.866526
H   55.486137   62.389091   79.072868
H   35.863495   43.005642   38.879288
H   91.463020   39.523533   35.349155
H   37.500927   45.250435    7.127933
H   44.447998   31.314362   89.877960
H   43.255333   12.335529   94.611641
H    9.748306   64.676208   68.825150
H   39.905243   39.822861   17.393837
H    6.272961   93.096519   68.638084
H   33.616497   36.667004   28.190620
H   58.757835   68.404228   17.102240
H   78.122917   38.575100   90.617561
H   96.487961   82.588921   25.363260
H   31.491917   36.981640   80.497307
H   23.423649    2.326255   35.891632
H   21.042215   87.526596   16.481096
H   63.757637   80.982208   15.991229
H   73.985680    1.272772   66.117294
H   37.484924   93.930099   49.202930
H   78.194664   96.724373    1.987121
H   21.715656   15.852607   32.747620
H   43.169701   94.005913   92.003571
H   46.574883   54.556042   37.203400
H   72.521591   80.703056   82.144661
H   68.571869   77.642990   25.476828
H   54.425468   77.434631   52.357098
H   94.861885   18.909159   40.800179
H   46.347260   96.446602   54.381123
H   91.385689   54.738720    6.421394
H   59.252388   45.429012   45.456882
H   58.936508   73.409210   76.652023
H   15.719610   90.775002   13.402883
H   27.410128   65.029007   65.857323
H   40.512756   61.119015   73.466164
H   88.912262   34.159946   55.385654
