100
TIME:    6.473, STEP:  6473
H   79.579910   28.415152   93.219803
H   21.706844   55.627598   86.249001
H   91.031540   39.597069   47.360516
H   82.563080   65.962738   85.355835
H   37.192978   91.596924   90.196304
H   27.640690   94.195412   19.788795
H   13.720786   98.424675   96.650108
H   11.121262   48.598072   13.863925
H   94.509178   63.940826   92.634270
H   97.958748    9.326797   61.161869
H   98.152344   26.697546   16.237724
H    8.783096   48.148579   32.173286
H   31.011246   70.155342   81.831718
H   34.576103   85.124275   49.838993
H   59.227058   91.832573   39.615726
H   41.259109   45.576820   95.725098
H    3.586890   10.110246   62.651070
H   39.489300   79.862961   75.136757
H   46.084232   49.904938    4.386023
H   18.124344   68.348427   57.044548
H   80.159729   11.809231   81.553932
H   82.953156   52.676987   68.042542
H   99.318321   41.977730   47.150848
H   17.622581   14.264132   26.331839
H   98.073433   72.819305   84.344460
H   17.038736   35.301537   81.725060
H    3.904479   73.403458   28.401587
H   86.368790   58.577461   80.736526
H   51.920174   36.372875   51.189575
H   49.196293   30.633263   97.973984
H   70.810356    2.502522   97.255852
H   74.466461   73.667709    0.026055
H   26.306168   94.887306   80.935913
H   51.601738   80.510941   99.054947
H   19.861221   69.573128   18.873064
H   35.324108   92.421562   99.075233
H    0.644358   67.480103   18.512243
H   96.452507   40.494862   79.222801
H   71.846344   40.379936   17.030519
H   53.508617    6.202295   47.317028
H   92.868378   78.286522   94.846779
H   54.704819   66.987015   10.418496
H   66.993927    2.317449   69.024712
H   66.019348   21.291830   13.631671
H   95.171150   76.499466   10.022159
H   94.570732   86.379410    9.458490
H   92.304977   76.861526   87.599281
H   56.585110   62.039780   69.090485
H   54.240044   96.356789   86.263596
H   61.641727   29.255945   30.939375
H   43.057125   44.717392   21.662113
H   19.711136   63.094315   49.124092
H   43.142376   59.541382   26.926546
H   26.792526    1.587089   17.451897
H   25.405315   25.867439   55.405666
H    1.657873    5.724755   72.270599
H    6.612871    2.770607   71.623589
H   44.062408   65.592552   46.826401
H    0.789477   12.270009   14.550905
H   31.867577   25.324268   79.503075
H   68.022423   77.546402    9.710627
H   69.178505   67.692307    2.469877
H   13.511992   65.577187   89.597412
H   87.529099   77.024277   51.399822
H   89.247177   43.856670   98.370888
H    3.700815   20.480919   28.918119
H   68.227554   72.148926   79.578323
H   33.231499   87.734657   75.649429
H   79.516060   84.677841   54.258488
H   61.523842   73.716240   88.102844
H   16.485233   54.978363   84.501198
H   40.238605   36.698837   30.544205
H   84.939178   98.126648   95.778625
H   87.713509   39.743061   18.549807
H   74.259270   37.869709   92.094986
H   78.684563   22.430946   60.377457
H   54.669521   65.547142    5.541194
H   36.093639   27.466284   71.920372
H   71.915657   34.505482   89.900276
H   82.083267   56.404854   63.266441
H   37.539215   96.247818   66.865097
H   27.026037   86.449188   45.473026
H   27.306648   15.369493   46.399681
H   95.481972   66.067772   72.207909
H   37.148323   43.995842   20.267502
H    2.311817   46.818985   91.287857
H   99.471748   32.712959   32.201073
H   60.132652   87.097961   28.462883
H   90.015488   33.765388   75.250008
H   94.038254   42.960011   55.609474
H   88.924461   22.955624   70.159714
H   57.235348   82.311005   56.859833
H    0.385385   21.741047   19.571604
H   72.856911    5.882483   63.263443
H   44.678429   69.918472   64.828796
H   28.564880   40.119354   33.110229
H   48.805840   39.151749   64.921188
H   25.782938    6.743613   48.935135
H    0.354447   64.754189    2.854720
H   41.273579   12.527649   74.176399
