100
TIME:    2.902, STEP:  2902
H   21.071815   55.893120   96.489151
H   20.545906   62.088219   61.057270
H   29.637533   82.685806   89.273476
H   81.963699   13.087564   81.095154
H   69.178101    5.365598   87.020065
H   83.019539   98.064140   66.141533
H    0.877383   57.295715   17.393120
H   91.794815   39.661526   41.742298
H   82.291237    7.277918   17.416096
H   95.537804   58.051781   21.328478
H   30.318054   83.010910   60.213314
H   45.080444   69.152969   86.361839
H   58.664970   86.132233   36.693863
H   11.391040   96.131081   78.083931
H   15.799583   10.809114   11.275178
H   84.840881   57.909576   92.149757
H   90.745491   73.914612   37.568859
H   63.159332   53.576424   98.936218
H   90.466026    0.093962   16.251696
H   14.335098   44.187160   13.914240
H   92.067932   67.314911   78.476593
H   40.597916   47.936432   72.146179
H   46.998146   71.020439   49.321182
H   49.414276   71.486633   91.545540
H   25.791428   56.017067   57.972961
H   33.352543   41.138866   17.167219
H   11.835732   21.843855   57.553471
H   87.679588   91.895271   62.698910
H   74.271835   12.384311   19.992998
H   12.269311   19.015854   14.089359
H   30.266462   82.283264   79.781944
H   48.991188   72.330681   30.611366
H   74.771210   56.157997   59.232033
H    0.717006    7.771791   49.493942
H    8.635049   39.551270    1.441198
H   24.872181   12.451658   10.664239
H   58.137833   98.257309   37.131466
H   44.045578    5.839297   27.227711
H   22.577774   18.187235   63.086838
H   89.857468   40.507797   66.358681
H   36.920177   55.756336   10.715987
H   70.805931   42.102173   39.139084
H   36.237461   80.902374   11.088481
H   94.047302   61.410225   64.475182
H    4.928988   17.394100    4.442554
H   40.647808   18.267994   94.952553
H   64.406540   82.657990   53.317131
H   56.394398   25.262110   48.137230
H   49.856461   92.106316   28.711565
H   86.745750   74.914223   80.694611
H   43.323215   89.473846   84.015060
H   46.163990   94.455048   83.551048
H   69.076973   38.835510   34.325500
H    9.491650   59.861534   59.873566
H    9.730953   12.907706   25.031099
H   97.197281    9.482088   93.835876
H   80.225563    5.810735   31.991890
H    9.967532    2.829220   38.807693
H   19.151718   61.385418   88.695213
H   67.515488   50.846134   81.070808
H   42.761421   43.614986   88.133194
H   95.916954    0.930858   64.050323
H   71.078148    9.255568   34.471634
H   42.314720   57.580658   48.353123
H   47.508358   29.065773   65.819756
H   23.070595   98.005928   17.773609
H   54.735786   48.691181    7.170338
H   79.904701   83.505310    4.934981
H    1.536133   41.267113   78.224678
H   89.179504   94.104561   95.622345
H   29.881618   97.947212   27.337830
H   34.684174   55.213409   69.093658
H   17.775778   74.760674   87.339348
H   66.328606   65.736557   30.734062
H    2.089539   32.774975   21.389393
H   94.261284   93.563469    0.662456
H   30.437410   75.021378   42.373051
H   68.321564   60.967258   74.707413
H    0.675542   44.994640   50.059189
H   57.205818   50.905636   70.911331
H   67.670700   59.304180   53.434284
H   59.065430   63.179825   44.114357
H    1.408533   55.696106    6.301071
H   49.802677   60.489471   98.364624
H   11.025712   67.363953   66.436089
H   84.501648   15.648891   43.306973
H   60.972740   92.353874   61.921875
H    2.671000   72.953308   65.563545
H   15.907314   32.592888    4.457692
H    9.762335   89.878494   27.957790
H   42.784424   30.131844   94.746658
H   93.009689   13.753317   88.819969
H   71.478455   14.590576   43.420555
H   27.716991   89.260521   22.485996
H    6.415710   89.785828   82.772148
H   33.614914   81.134773   17.557129
H   32.254837   34.220242   70.292870
H   17.519491   40.946472    9.601852
H   70.468895   49.359676    1.964096
H   19.465868    4.164872   18.180399
