100
TIME:    5.233, STEP:  5233
H   63.435951   42.128517   94.355057
H   55.952248   88.432083    8.062526
H   69.707687   50.386703   61.920147
H   82.354950   17.050732   53.325424
H   48.299545   92.205536   23.816460
H   46.873783   95.538795   96.987389
H   78.708000   14.694162   99.680420
H    8.582817   41.322575   27.717068
H   24.990807   83.161713   70.689278
H   31.835115   91.521492   12.607183
H   13.494110   76.803741   35.680622
H   56.113724   85.994026   20.438265
H   10.138412   45.140892    5.044649
H   95.974419   88.946297   55.474648
H   44.152550    2.595114   99.225891
H   91.115677   54.031754   98.655975
H    3.300325   28.093182   49.768982
H   12.971932   40.197895   18.123060
H   26.774174   97.882492   39.056362
H   51.529190   94.686317   72.619606
H   53.743080   35.255821   15.212055
H   64.073151   51.030869   73.639999
H   15.875920   52.062569   82.627533
H   32.836552   99.430145   18.424694
H   42.421417   71.157379   75.186745
H   22.691355   71.958725   98.330582
H   10.831045   24.946865    3.795930
H   90.996651    0.698466   39.748260
H   24.957893   23.870584    9.805878
H    1.650413   61.322960   99.397560
H   22.006187   91.308960   95.360634
H   96.172157    7.931535   14.818993
H   38.962734   85.611443   69.226921
H   99.207596   94.149590   51.292793
H   50.693481   63.345413   43.380775
H   27.533083   95.299324    2.974459
H   81.711517   12.891548   20.805096
H   47.701641   63.190479   91.720238
H   24.185337   67.398979   37.195358
H   70.302559   22.287102   49.756451
H   77.613403   35.739708   65.632912
H   61.308250   46.718239   48.647701
H   56.315731   94.880692   79.458565
H   45.198292    0.478468   92.391281
H    2.732107   25.424728    3.912059
H   10.574060   62.728291    4.420579
H   82.617477    9.425862   75.698036
H   56.518887   49.268173   92.366341
H   17.997063   99.053589   35.727318
H   35.629459   10.380957   17.661774
H   43.145374   64.431122    8.591163
H   59.446312   78.156540   30.525253
H   17.419415   52.351440   98.944023
H   55.504990   21.821304   62.734154
H   24.135944   17.199812   44.857265
H    0.113381    7.029115   14.483139
H   28.001472   38.550880   53.689323
H   36.395157   82.695213   78.764877
H    2.993139   59.876205    9.742348
H   13.695555   30.013897   14.771614
H   89.801971   35.213490    6.390786
H   13.187258   79.234055   58.579330
H   29.328325   50.192795   74.627930
H    2.379777   70.269516   85.063644
H   40.029312   42.893246   82.895332
H   79.874596   82.125206   55.599129
H   67.715088   29.281532   19.711628
H   18.886848   16.818113   16.370260
H   17.713324   73.776329   32.028000
H   36.406349   11.346361   90.713928
H   55.861488   39.347092   99.373024
H   42.482185   77.851791   39.757591
H   65.789963   59.459023   27.573868
H   15.011250   18.222813   92.226921
H   14.475743   36.100605   98.094452
H   49.371368   42.959221   43.814686
H   42.077526   72.985298   83.596642
H   77.836182    8.546921    3.437633
H   12.455331   38.147755   76.069099
H   42.889526   23.951904   70.093628
H   13.273430   83.419449   92.753502
H   33.964149   78.403030   49.197533
H   48.874527   94.633606   28.308088
H   10.172396   59.958298   85.463318
H   97.524910   21.557220   40.471672
H   30.853756    1.270114    5.178552
H   16.654974   22.871201   73.073135
H   40.188538   86.328354   41.322647
H   64.283066    2.807627   85.391609
H    3.670632   93.974655   11.285311
H   38.178612   55.997425   43.973186
H   65.487907   89.051208   33.237091
H   20.898699   84.537086   23.680500
H   53.016838   30.653151   79.652336
H   66.115807   80.989525   36.333927
H   26.145966   89.086639   97.157471
H   47.231194   67.991844   36.234589
H   26.073652   60.793549   72.294182
H   59.425018   59.407703    6.717690
H   64.251205   44.346035   93.628845
