100
TIME:    7.735, STEP:  7735
H   94.236076   12.684703   92.064407
H   86.855209   24.011890   65.823135
H   12.728510   30.390312   32.542568
H   82.774902   13.968269   16.180603
H   25.886755   92.751701   55.977341
H    8.067340   92.828194   44.769249
H   47.578136   83.641983   95.340225
H   11.930550   57.776783   97.991158
H   63.486809   42.604736   13.195808
H   63.489449   27.448137   10.575161
H   80.764175   77.477173   94.675339
H   60.619957   11.406055   42.342918
H   50.514488   93.796967   56.423138
H   72.090340   81.234444   45.877613
H   74.555305   79.104507   78.925079
H   90.515091   35.197693   90.968048
H    2.104273   93.581528   77.535919
H   66.476532   18.453690   31.392891
H   65.736435    2.844330   70.870468
H   84.122330   41.551319   42.967354
H    5.270844   86.173523   47.301151
H    3.942322   54.352310   60.571579
H   82.468803   31.714102   11.042275
H    0.364501   29.361300   32.605110
H   52.935982   72.736633   93.664650
H   11.136181   98.075668   62.985535
H   95.081024   20.941614   53.444782
H   79.884544   17.483343   22.449816
H   79.360817   50.871540   91.535088
H   97.588104   99.397842   98.299370
H   20.475828   15.668365   97.410500
H   54.149868   38.800983   83.196388
H   15.199600    2.553413   94.626839
H    4.923470   64.856117   45.887497
H   88.452782   74.021996   95.654755
H   45.027775   91.266891   95.108376
H   21.686481   21.263163   17.952909
H   44.290039   17.396580   68.277733
H   18.574398   12.884871   94.733711
H   34.643120   88.058487   46.608604
H    6.619501   21.589979   24.577726
H   48.350319   71.935959   74.844658
H   77.854645    9.887831   60.179485
H   85.437775   42.474083   37.022762
H   85.701653   26.709133   18.014908
H   78.279655   10.448382   14.585558
H    2.165669   45.494148   99.711678
H   56.659725   75.037979   47.175503
H   91.133125   91.837837   35.921494
H   88.137939   48.465084   42.701324
H   42.970470   22.879370   34.964676
H   81.049347   45.988445   66.282227
H   69.319756   66.858887   53.634163
H   97.569855   81.001221   73.140701
H   24.922955   36.463226   66.139297
H    3.229692    4.397254   29.309143
H   86.617386   66.356255   91.650230
H   50.091476   46.412285   14.318780
H    0.316874   65.600685   17.669994
H   48.587822   22.325695   43.608788
H   47.630627   18.858639   11.315207
H   24.387672   55.945786   45.370590
H   99.189201   79.460358    3.058289
H   74.189201   83.898880   17.132717
H   39.338249   43.062908   15.895827
H   26.174343   57.743553    3.537521
H   66.974945   15.781963   40.508587
H   46.056465   59.910393   35.980331
H   42.414085   93.998573   75.107758
H   87.118584   37.153080   85.437790
H   76.411049   69.112778   69.365517
H   36.309093   94.766991   23.018923
H    2.654124   35.707775   63.427250
H   59.927662   59.870190   43.565704
H   35.073227   39.704571   87.774673
H    8.515330    3.313254   75.461281
H   69.285851   56.317505   27.922300
H   95.384689   44.949291   41.615276
H   32.434486   30.798588    3.978924
H   20.193501   87.657005   54.544014
H   62.240440    9.304482   42.293289
H   21.725040   94.633240   39.894100
H    7.130348   36.474644   66.586304
H   82.304619   74.059814   56.943638
H   75.699829   65.048729   97.931618
H   73.272202   93.173172   78.925018
H   83.757942   40.954964   92.377922
H   80.429100   86.111816   15.378029
H   16.207062   63.499763   64.928474
H   82.461090   91.036270    0.725777
H   40.570789   91.099541   96.810837
H   50.610569   77.225433   80.908455
H   81.281967   59.609135   17.164003
H   94.824135   82.446373   48.357922
H   22.858692   56.876297   93.829224
H   32.800903   90.285767   67.926079
H   48.634209   11.575406   92.341499
H   23.346979   69.185829   23.601492
H   40.235374   70.203804   97.149223
H   19.662424   80.140213   52.603817
