100
TIME:    5.229, STEP:  5229
H   63.706459   42.495338   94.358719
H   56.062721   88.215347    7.810310
H   69.638901   50.098923   61.967113
H   82.354279   17.215542   53.544693
H   48.335373   91.884918   23.924904
H   46.935825   95.543129   96.591270
H   78.917656   14.424059   99.367615
H    8.897209   40.976536   28.084347
H   25.089134   83.546295   70.941048
H   31.944414   91.464058   12.450537
H   13.866180   76.642792   36.065907
H   56.266403   85.793526   20.722979
H   10.393661   45.382774    5.442114
H   96.172478   88.958626   55.170235
H   44.103905    2.952402   99.418152
H   91.276505   54.381607   98.988007
H    3.621986   27.828625   49.404846
H   12.886399   40.392506   18.261717
H   26.711872   97.714706   38.845638
H   51.636948   94.771278   72.347267
H   53.980446   35.654045   15.320621
H   63.689667   51.025558   73.980637
H   15.929334   52.095100   82.741974
H   33.208225   99.382294   18.721767
H   42.564484   71.474579   75.157204
H   22.709589   72.076950   98.706741
H   11.175970   25.113140    3.716557
H   91.334175    0.511761   39.616028
H   24.870918   23.507685    9.994949
H    1.497041   61.421959   99.079567
H   21.848763   90.950256   95.677101
H   95.919594    8.042045   15.189293
H   38.680965   85.904106   68.866570
H   99.038589   94.516167   51.461311
H   50.792908   63.647781   43.137215
H   27.185381   94.986031    2.987040
H   81.327850   13.038048   20.489910
H   47.866955   63.263691   91.437950
H   24.354191   67.486137   37.582993
H   70.679329   22.661568   49.441723
H   77.886780   35.602470   65.538673
H   61.667747   46.538704   48.459805
H   56.281277   94.856705   79.169624
H   45.453693    0.411327   92.000168
H    3.079077   25.582535    3.569759
H   10.625673   62.651997    4.404317
H   82.586227    9.208318   75.659645
H   56.518673   49.226974   92.118843
H   17.880150   99.384888   35.886894
H   35.545567   10.320074   17.941528
H   43.145679   64.817291    8.548995
H   59.251915   78.527695   30.787857
H   17.336437   52.328247   99.176323
H   55.597610   21.886581   62.557640
H   24.454441   16.849272   44.823238
H    0.108398    7.033322   14.619308
H   27.747902   38.666298   53.308891
H   36.693008   83.072960   78.867905
H    2.677679   59.707199   10.049431
H   13.959509   29.706432   14.885384
H   89.549652   35.399494    6.702653
H   13.329210   79.271286   58.760330
H   29.056765   50.465744   74.902222
H    2.105100   70.247726   85.172226
H   39.870529   43.212734   82.522835
H   80.120323   82.324059   55.362617
H   68.036011   29.143242   19.518497
H   19.163155   16.589338   16.179037
H   17.513952   74.063744   32.278885
H   36.325325   11.145166   90.722351
H   55.988503   39.619247   99.420998
H   42.811989   77.984543   39.464714
H   66.050766   59.656868   27.676437
H   15.099293   18.475971   92.464592
H   14.282895   36.094898   97.791229
H   49.276794   42.702843   44.083820
H   41.714336   73.331978   83.525902
H   77.648254    8.808472    3.216722
H   12.263520   38.159504   76.024483
H   43.085663   24.169800   70.438232
H   13.195160   83.378067   92.514427
H   33.664009   78.376907   49.532005
H   48.621506   94.566711   27.927137
H    9.897203   59.616013   85.828674
H   97.719673   21.807434   40.859428
H   30.945827    1.123187    4.900773
H   16.387823   23.162033   72.882401
H   40.124146   86.648605   41.364243
H   64.200058    3.030335   85.424324
H    4.024291   94.139206   11.142328
H   38.014915   55.781452   43.888714
H   65.191948   88.750366   33.160889
H   20.642290   84.417091   23.371174
H   52.630272   30.410475   79.382622
H   66.184959   81.347801   36.242008
H   25.815582   89.244598   97.364075
H   47.548698   67.762291   36.464630
H   26.058973   60.759491   72.358208
H   59.615570   59.390461    7.052742
H   64.002731   44.448666   94.014160
