100
TIME:    1.063, STEP:  1063
H   45.435707   24.538704   98.172806
H   71.700951   62.380947   45.053921
H   98.028259   50.380276   10.858505
H   81.655029   88.853783   81.897087
H   85.649857   57.961662   36.882240
H   11.532665    0.056726   84.018211
H   97.259270   33.116558   73.580757
H   36.336594   80.564713   10.592314
H   27.497429   84.090210   33.174690
H   45.790428   31.646557   49.317322
H    1.377362    9.014617   37.356033
H   15.267582   76.973473   17.263525
H   75.644150   97.394234   19.475615
H    2.448433    1.799810   38.135174
H   93.430565   75.073059   99.673965
H   58.783432   18.758694   44.802231
H   38.602913   52.294876   70.138939
H   23.860023   43.007065   62.694138
H   61.816902   22.947031   19.366068
H   63.876640   83.240829   88.706657
H    1.196700   50.392967   28.392948
H   64.275200   45.502975   28.742756
H   71.551445   85.976906    1.935528
H   20.277344   49.430759   28.126808
H   91.565544    1.870589   44.405510
H   41.784847   95.935974   89.538025
H   70.415939   98.288589   21.060255
H   42.847946    6.056575    1.909412
H   34.285034   45.535435    6.924306
H   41.752895   64.530655   67.894066
H   57.917149   17.368319   25.295025
H   32.875523   23.143433    0.856862
H   45.234371   90.708504   93.560387
H   23.016304   76.305153   26.968267
H   54.349297   78.565437   89.458267
H   64.978638   67.988663   16.986700
H   81.754265   65.606789   92.225655
H   20.055931   39.498249   97.455193
H    2.930900   57.816078   40.243652
H   63.069740   12.668432   21.668344
H   62.595741   92.656395   67.388351
H   36.084801   59.567627   52.741611
H   20.397078   69.874435   78.254280
H   11.479864   30.585634   84.668343
H   64.447029   89.950607   47.072784
H   64.373528   83.191872   87.488350
H   47.304371   83.083801   36.706490
H   56.296185    6.328008   34.350323
H   96.104546   44.411095    2.069503
H   48.184299   46.928936    9.317993
H   43.463520   67.017738   64.624969
H   56.792488   65.101517    4.276910
H   30.930033   28.172363   41.132561
H   52.074085   89.860588   78.724136
H   56.135384   51.693661    9.426392
H   94.896286   11.414783   56.439774
H   63.639740   58.874596   57.087608
H   46.905212   76.500343   86.174515
H   74.112846   83.682541   29.875927
H   88.871902    9.492865   33.375328
H   26.755827   29.137177   31.515877
H   61.183197   18.051102   47.258392
H   46.335938   34.665367   60.632179
H   16.033152   47.576942   98.277885
H   74.515724   75.944664   94.556145
H   36.043434   89.428261    9.038431
H    2.281670   85.113037   18.384068
H    6.937089   78.330978   17.020147
H    9.880949   73.405930   93.562355
H   51.919159    1.608210   99.494751
H   88.276634   23.074686   49.398411
H   86.317825   16.246819   34.449242
H   37.682678   65.724281   34.491879
H    6.794278   82.111313   40.031349
H   13.423896   30.156221   81.980278
H   50.790668   75.701805   24.403580
H   63.469494   34.412956    9.843477
H   81.921997   81.214317   73.146576
H   12.504038   50.388523   29.541286
H   47.394058   51.061806   29.342682
H   31.684010   40.278881   43.521252
H   21.080517   51.169754   97.889603
H   85.055885   24.999067   31.145267
H   23.294386    3.123879   66.336739
H    0.569562   82.392990   44.706474
H   26.826069   48.101307   15.601391
H   38.150093   26.064171   74.231003
H   73.067368   20.187965   84.691917
H   77.742622   34.985481   19.503078
H   72.353989   65.543152   62.214748
H   67.524879   30.831114   55.910351
H   56.938190   75.453957   53.775986
H   53.487831   59.480080    1.151113
H   49.971344   77.712257   98.491737
H   38.214283   54.513321   40.512413
H   81.721008   53.754082   12.543749
H   78.226547   28.683653   76.054886
H   10.768125   25.288483   39.028297
H   58.073143   41.432468   56.007908
H    5.257339   51.400166   95.303535
