100
TIME:    3.201, STEP:  3201
H    0.852167   28.473228   96.215408
H   12.228432   78.298615   79.918137
H   34.777054    4.197218   85.765007
H   82.013885    0.768010   64.707092
H   66.499985   29.331768   78.912720
H   78.384163   97.740211   95.751366
H   85.205696   77.484993   40.775307
H   68.294006   65.528061   14.288225
H   74.941246   78.530243   98.594749
H   87.366585   62.344978   33.037819
H    2.505806   95.041901   31.413279
H   33.667656   84.140381   65.078346
H   39.646698   68.042404    6.976017
H   96.586555   95.209480    0.836584
H   19.436939   84.101273   96.902473
H   72.819016   31.758026   67.330421
H   66.701759   93.692520   64.788010
H   69.546959   39.036125   88.570496
H   95.124214   12.638049   32.003307
H    6.280220   37.838612   34.271568
H   74.324844   37.547928   70.360123
H   69.263336   48.333359   46.683548
H   43.006065   68.588692   40.766724
H   21.633957   75.072662   69.340446
H   15.098306   32.304108   60.179909
H   31.981531   32.230824   89.141502
H   86.053192    9.414495   63.486843
H   62.449780    5.851547   72.581322
H   80.773224   39.511459    5.859848
H   23.733612   11.615338   37.858490
H   42.034946    9.095786   56.126015
H   67.870308   64.068214    2.931466
H   95.831146   34.281395   86.168312
H   13.350808   80.370247   36.897217
H    1.202150   16.949249   19.647369
H   50.868923   35.940113    9.636563
H   86.816475   87.307602   60.691586
H   31.688377    0.366988   48.326427
H    9.956229   11.673300   34.111176
H   61.694096   12.516051   89.882301
H   16.486155   66.015289   17.759871
H   43.933525   55.522408   53.186646
H   38.812923   82.695389   32.685520
H   74.953751   66.420898   93.710899
H   78.992088    5.597569   30.029509
H   36.790318   23.970966   96.166145
H   66.742477   98.918304   56.189148
H   56.410366   28.340574   66.637672
H   58.595695   67.341728   16.784369
H   93.014458   79.462914   59.781132
H   43.300404   60.607681   87.167664
H   60.695164   66.711227   63.923687
H   75.277245   40.569214   16.959797
H    2.568241   54.982071   73.067963
H   85.924606   39.111725   27.573484
H   97.571396    9.167639   83.657211
H   99.182243   97.182961   60.429192
H   87.703362   74.592575   31.106266
H   42.732368   74.018646   65.741890
H   47.785080   73.828140   72.566536
H   61.622292   29.711140   64.819443
H   85.304863   98.147629   50.520599
H   91.376167   88.852348   13.968307
H   62.847702   59.207146   40.234371
H   59.377384    5.184922   93.663948
H    4.702761   83.141701   35.451904
H   30.746742   59.027248   21.606825
H   59.250816    0.605136   19.228910
H   16.438690   19.782875   59.472752
H   95.238342    9.143053   94.992737
H   20.386169   77.603569   23.750660
H   10.030486   45.290237   90.983948
H   98.279785   59.970066   79.674553
H   59.748180   46.814301   12.963600
H   16.505079   33.201557   44.055820
H    1.328759   12.726328   80.542419
H   57.585773   49.105759   47.660847
H   82.369125   41.415188   91.218658
H   15.013272   44.116383   53.396568
H   42.542336   34.620228   45.152145
H   73.519669   62.397472   71.305115
H   81.499146   65.132523   19.111937
H   20.326010   60.687347   34.779240
H   70.372864   86.075287   71.054230
H   96.466614   48.660892   37.451302
H   77.621582   26.631676   64.070358
H   80.942268   70.614143   76.179306
H    7.483168   49.014511   62.453140
H   22.113281   15.945869    2.011402
H   83.327301   77.578323   38.645592
H   55.020721   46.275951    1.061008
H   15.133825   36.238937   94.518379
H   90.645004   23.562582   66.542686
H   56.617374    7.396521   42.645401
H    1.245670   63.004581   89.643089
H   58.311066   69.327339    2.112967
H    8.522296   51.379345   53.097267
H   18.616743   43.492279    4.817629
H   56.225151   50.648548   76.919899
H   38.037029   96.492043   89.377075
