100
TIME:    1.758, STEP:  1758
H   98.436432   60.803757   97.536514
H   52.368294    0.060239   88.894402
H    9.973288    0.382162    2.698462
H   81.771683   60.220665   43.801624
H   79.424805   13.668965   18.038059
H    0.755113   99.303520   52.846882
H   60.832043   80.046547   27.930748
H   81.710960   40.690960   46.780785
H   10.413002   17.268997   89.427086
H   26.797853   41.625633   76.532249
H   36.730148   36.979298   70.409271
H   88.741821   11.809992   67.792702
H   31.436367   55.345970   50.397614
H   68.035759   99.657204   91.024193
H    1.883140   12.995701   66.268661
H   30.839630   57.969498   87.112076
H   82.726898   98.256332   33.416626
H   38.712128    9.209114   38.599899
H   72.643394   52.105087   55.979343
H   45.153763   68.478867   36.025429
H   59.954422   81.203064    9.529556
H   30.916447   46.420296   69.565346
H   62.272194   80.324516   82.051285
H   55.704277   57.766178   76.510406
H   66.707756   46.748375   49.532959
H   38.598087   75.224686   24.395296
H   10.484100   69.400955   34.851871
H   84.206863   38.497204   24.882040
H   49.396957    8.591720   74.070885
H   68.402901   47.329575   23.144341
H   85.256477   79.693695   70.299377
H   76.758423    3.942644   36.517189
H   94.188431   39.858208   56.171478
H   52.381157   12.612444   97.690109
H   37.073982   26.028969   31.778290
H   25.406216   22.583643   14.596215
H   48.413750   40.155128   46.988773
H   91.330345   26.777721   46.497967
H   71.688644   42.979881   73.631592
H   97.609779   47.605511   76.350601
H   15.101883   16.504675   83.762253
H   73.622162   90.757271   85.393967
H   26.383520   74.042145   28.455860
H   67.099098   42.234749   52.621418
H    4.162449   62.526730    6.546637
H   55.406902   96.447945   90.309242
H   54.642933   20.574457   42.645210
H   56.333302   13.483637   77.353020
H   16.419386   86.851952   74.348129
H   62.760677   57.507282   60.706623
H   43.410496   99.919548   71.952927
H   90.568962    0.609377   58.653721
H   45.347336   32.202209    0.767198
H   35.981213   78.523994    9.392611
H    0.804880   12.620272   15.324018
H   95.765884   10.684374   32.780334
H    7.702183   38.820808   23.187994
H   95.152924   10.866010   68.273514
H   28.926590   13.048024   76.521393
H   43.008320   62.914837   13.608033
H   70.596634   96.817696   77.327751
H   36.516296   11.581232   15.809693
H   93.476517   87.270576   12.952651
H   63.759430   51.357574   79.411842
H    2.099184   20.435226   59.281139
H   93.348671   54.877632   50.132030
H   46.521225    9.142344   51.938915
H   58.928703   18.079090   50.245167
H   44.521484   23.467651   49.974678
H   65.997864   36.565247   98.031281
H   66.207924   75.786324   41.062992
H   29.012270   93.180328   85.334435
H   92.366333   31.348370   16.670414
H   91.500237   38.129845   98.725395
H   46.931313   31.145124   34.666729
H   67.221855   20.243528   77.637901
H   26.569624   74.176010   22.139357
H   14.574367   35.769203   11.526853
H   45.819199   48.352390   37.292595
H   13.309938   13.209082   69.467934
H   45.284740   47.468975   85.060478
H   73.228409   55.708633   39.774979
H   29.031384   36.599182   97.340790
H   71.105598   62.595928    2.856056
H   66.729431   38.920616   77.334106
H   10.828640   73.630501   63.864113
H   84.567558   75.531998    7.371369
H   84.255493   64.544861   77.468575
H   92.165230   96.290031   13.816732
H   10.907257   36.946869   87.061928
H   95.967110   68.357101   70.587479
H    8.361286   27.723906   67.017357
H   98.081261   80.306870   54.918900
H   17.144718   19.867918   45.351181
H   26.197697   92.258240   56.483330
H   39.125198   26.309259   76.645874
H   23.060505   68.568520   36.085175
H   13.319919   31.205994   27.908127
H   24.965340   44.428341   97.792252
H   48.419113   33.546886   28.365524
