100
TIME:    4.984, STEP:  4984
H   80.275063   64.963142   94.583023
H   62.829231   74.940277   92.362671
H   65.425720   32.472351   64.843269
H   82.313156   27.310165   66.974495
H   50.529816   72.247086   30.567112
H   50.735912   95.808556   72.329033
H   91.759071   97.880295   80.208298
H   28.153725   19.781658   50.580189
H   31.111702    7.102102   86.361961
H   38.639885   87.946220    2.856035
H   36.655487   66.784622   59.664577
H   65.617699   73.512871   38.162025
H   26.027664   60.198067   29.786621
H    8.303250   89.713783   36.524948
H   41.124397   24.836306   11.195328
H    1.127296   75.810135   19.325527
H   23.323616   11.624389   27.101530
H    7.647479   52.312405   26.754435
H   22.895897   87.437836   25.938799
H   58.237099   99.975136   55.666512
H   68.519096   60.045258   21.970306
H   40.201279   50.700317   94.844666
H   19.200447   54.087669   89.751480
H   55.973232   96.451385   36.917763
H   51.327301   90.903061   73.347816
H   23.826437   79.318237   21.745573
H   32.302635   35.297787   98.855385
H   12.006728   89.075989   31.516779
H   19.543694    1.279777   21.575588
H   92.102524   67.485649   79.602486
H   12.206302   68.979660   15.060722
H   80.450081   14.810891   37.870186
H   21.423199    3.829594   46.795036
H   88.686951   16.968750   61.783043
H   56.882767   82.167831   28.219116
H    5.888607   75.796806    3.757620
H   57.828735   22.011150    1.185140
H   57.992420   67.746346   74.147835
H   34.696484   72.824577   61.325592
H   93.756493   45.598160   30.164736
H   94.631088   27.196669   59.766582
H   83.686943   35.542191   36.951130
H   54.170948   93.387512   61.472290
H   61.097042   96.299072   68.044479
H   24.330965   35.248177   82.604637
H   13.786961   57.978992    3.408336
H   80.672165   95.884117   73.308189
H   56.505589   46.703552   76.959618
H   10.719238   19.675198   45.660950
H   30.407131    6.591017   35.076500
H   43.164371   88.470169    5.966225
H   47.345100    1.260989   46.872337
H   12.254422   50.907654   13.405592
H   61.270638   25.884804   51.746178
H   43.961792   95.377693   42.739079
H   99.802322    7.291039   22.959686
H   12.216592   45.735619   30.007423
H   54.936417    6.210128   85.178329
H   83.354118   49.355560   28.858273
H   30.126293   10.874227   21.853767
H   74.095093   46.792278   25.804253
H   22.023802   81.551712   69.845581
H   12.423673   67.183884   91.702606
H   85.282143   68.913116   91.822845
H   30.145250   62.781406   59.707355
H   95.171135   94.503777   40.876305
H   87.692535   20.672955    7.689260
H   36.086906    2.576947    4.466620
H    5.302816   91.667885   47.645592
H   31.362474   98.822266   91.238251
H   63.768120   56.288788    2.359995
H   63.012451   86.115570   21.526531
H   82.024963   71.776100   33.958824
H   20.491940   33.981815    7.021591
H    2.470833   35.745358   79.218842
H   43.484138   26.999979   60.568310
H   19.469496   94.566109   79.193092
H   66.137711   24.828465   89.687080
H    0.515235   38.879147   73.291710
H   55.100433   37.514164   91.545258
H    8.401125   80.843430   77.871101
H   15.280429   76.776871   70.018456
H   33.123955   90.469421    4.594121
H   93.041290   38.651047    8.206174
H    9.649421   37.133018   64.609505
H   36.585209   92.124733   87.887192
H    0.024803   40.975525   61.199890
H   36.180130    6.263819   43.911964
H   59.115829   16.671270   87.428108
H   25.685793    4.218727    2.384501
H   27.988518   42.553112   38.714764
H   47.064426   70.323776   28.493490
H    4.937545   77.067329    4.424946
H   28.950256   15.548696   62.862743
H   70.420570    3.292478   30.612202
H    5.579576   98.919586   10.018936
H   66.995872   53.702160   50.554672
H   25.159887   58.673462   76.279793
H   71.286865   58.334362   27.574707
H   48.785557   50.734791   17.615717
