100
TIME:    0.993, STEP:   993
H   50.169594   30.958076   98.236893
H   73.648125   58.585400   40.638332
H   96.825562   45.344112   11.680420
H   81.643280   91.737694   85.733757
H   86.276840   52.350853   38.780281
H   12.618137    0.132910   77.086143
H    0.928160   28.389616   68.106667
H   41.838455   74.508499   17.019585
H   29.218163   90.820404   37.581200
H   47.703423   30.641727   46.576004
H    7.888580    6.198088   44.098511
H   17.939472   73.464714   22.246016
H   80.097122    1.629355   26.433050
H    5.914333    2.015620   32.807949
H   92.579277   81.325806    3.038876
H   61.597916   24.881664   50.612778
H   44.230812   47.665665   63.765495
H   22.364128   46.411148   65.120895
H   60.726891   20.010248   15.678400
H   65.769783   84.712677   83.932503
H    5.350553   57.361885   30.292858
H   57.563160   45.410583   34.703373
H   72.486046   86.546211    3.938377
H   26.781097   48.591221   33.325859
H   94.069206    7.422131   43.889076
H   42.105816   98.022003   96.099457
H   76.451859    1.198286   19.671171
H   48.754089    2.789144   99.595688
H   32.762970   39.184422   10.233082
H   39.068722   66.263138   62.329189
H   55.163548   11.090738   30.834003
H   28.455664   25.077255    7.337066
H   40.303417   95.830116   87.254234
H   20.058693   82.720253   29.917067
H   56.089256   83.856880   85.195419
H   58.892517   62.490002   17.227560
H   75.040092   68.170265   86.709908
H   22.948921   40.779453   92.515160
H    6.077912   59.310371   46.953018
H   69.663139   19.221655   16.160875
H   67.379669   90.254204   65.739182
H   42.375999   56.425766   49.452885
H   19.794127   69.454666   73.197823
H   15.949659   29.412577   77.823860
H   70.519264   92.712753   41.082260
H   65.269234   81.871391   87.212349
H   46.565235   79.308014   36.108345
H   56.292446    5.607297   30.019117
H   94.058037   50.208290    4.861934
H   46.716175   45.863491   14.213699
H   43.468861   73.775703   63.886906
H   53.390541   71.596725    8.872421
H   29.477930   27.766479   45.198341
H   53.694950   91.002403   75.635147
H   61.708275   45.556805    8.832386
H   94.808701   11.488350   58.822739
H   59.202255   60.894402   50.430046
H   52.117615   83.110909   87.977493
H   68.591759   80.724930   35.250042
H   93.491501    4.112235   35.366295
H   22.339972   32.392258   36.973412
H   63.667633   18.702652   50.425888
H   41.587631   39.438774   65.434425
H   11.226366   47.196159    0.178117
H   71.737556   81.535179   88.037437
H   40.343666   92.908180    4.899618
H    7.898077   82.692688   15.004284
H   11.772580   74.327682   13.673743
H    6.392053   78.435684   97.952309
H   50.501236   98.087547   99.642151
H   90.499382   27.837679   50.237949
H   92.089920   18.569969   29.324030
H   42.246735   69.187111   36.286846
H    8.334901   86.540787   44.191658
H   10.049052   30.056620   76.673882
H   49.135624   71.215721   29.113701
H   57.113674   40.479851    8.604864
H   78.633270   85.791191   69.281067
H    9.148554   50.593601   28.760761
H   50.826981   54.874443   35.373260
H   30.314152   39.554699   39.337444
H   15.828327   50.712601    3.743128
H   80.626411   23.830816   24.478092
H   18.478788   97.133888   72.730476
H    3.978086   86.771194   51.492210
H   28.437321   45.529819   10.740265
H   33.474953   31.153740   70.893143
H   71.940506   25.792099   85.419304
H   76.289986   38.883034   20.075855
H   78.542648   68.423859   59.712154
H   64.660194   27.051321   54.432079
H   51.758900   70.189217   52.442444
H   48.996407   57.382835   95.735741
H   43.205368   73.466499   93.771736
H   39.424458   60.783691   38.903831
H   75.939301   56.518364   16.159447
H   83.782883   24.666471   80.080612
H   10.511109   24.692474   40.148216
H   61.407799   41.130726   61.871326
H    0.910087   53.198338    2.045532
