100
TIME:    2.742, STEP:  2742
H   31.891518   70.565971   96.635635
H   24.996590   53.412682   50.964497
H   26.887289   71.174576   91.150917
H   81.936844   19.679972   89.864685
H   70.611206   92.540909   91.358444
H   85.500008   98.237480   50.295750
H    9.262823   46.491272    4.880874
H    4.370506   25.819971   56.433460
H   86.224342   22.661392   27.487507
H   99.910362   55.754417   15.062610
H   45.200867   76.572922   75.625610
H   51.187622   61.132950   97.750999
H   68.842552   95.812408   52.595963
H   19.313225   96.624245   65.908638
H   13.853172   25.100607   18.966406
H   91.273987   71.903717    5.431195
H    3.611759   63.331192   23.003428
H   59.740143   61.357185    4.483589
H   87.973351   93.382523    7.822738
H   18.645401   47.584377    3.020755
H    1.562540   83.242645   82.819855
H   25.258560   47.724030   85.771667
H   49.134377   72.321709   53.898819
H   64.279999   69.567688    3.428155
H   31.513474   68.706726   56.792542
H   34.086185   45.905712   32.164162
H   25.632729   28.494856   54.378422
H    1.180483   84.427010   57.409603
H   70.792831   97.867989   27.555864
H    6.134362   22.975815    1.370178
H   23.969465   67.935120   92.440636
H   38.888649   76.752068   45.423378
H   63.501621   67.864540   44.817970
H   93.956718   22.434708   56.234665
H   12.612405   51.645996   91.697716
H   10.960439   99.882622   11.214166
H   42.792374    4.117067   24.524046
H   50.658127    8.767651   15.937426
H   29.331924   21.672953   78.592209
H    4.928045   55.487045   53.769794
H   47.854763   50.266834    6.946332
H   85.185814   34.920776   31.622026
H   34.859287   79.942902   99.531639
H    4.264396   58.728340   48.831833
H   18.807772   23.706356   90.750954
H   42.712017   15.216236   94.303139
H   63.155720   73.956818   51.780266
H   56.385853   23.614771   38.237328
H   45.179947    5.357815   35.094307
H   83.391258   72.480141   91.886017
H   43.335423    4.920797   82.328049
H   38.388111    9.301704   94.053978
H   65.759102   37.907776   43.618713
H   13.196484   62.472618   52.813019
H   22.469406   98.883057   23.672316
H   96.997086    9.650240   99.282654
H   70.081520   10.427739   16.774605
H   21.881439   17.939480   42.928787
H    6.533309   54.625164    0.977976
H   78.074570   38.547550   85.621590
H   32.668648   51.055172    0.608731
H    1.595493    2.420420   71.289093
H   60.222027   20.169451   45.446457
H   31.327208   56.710297   52.697605
H   41.157040   41.845173   50.918785
H   32.899696    5.959947    8.313522
H   67.572701   43.160175   99.445267
H   90.956947   74.354919   97.286057
H   93.562309   52.763695   88.258858
H   85.937317   86.057686   95.959259
H   34.962440    8.833718   29.257385
H   47.876312   60.523468   57.379105
H   28.208517   82.675713   91.440910
H   69.849113   75.861069   40.243340
H   94.374901   32.546703    9.259876
H   90.479546   83.309563   11.428226
H   15.910433   88.888565   39.543461
H   60.804470   71.429039   65.871964
H   93.002289   45.464611   48.273300
H   65.052498   59.620235   84.695511
H   64.540817   57.648907   43.871296
H   47.059814   62.134903   57.493263
H   91.286331   53.025208   91.061920
H   38.795597   46.798065   12.978363
H   18.816654   77.371277   81.946342
H   88.183289    9.771816   32.196133
H   50.286705    3.987198   54.292480
H    0.095928   85.763367   67.228584
H   12.586697   41.501579    5.766744
H   23.908588   96.460526   22.238186
H   36.236572   21.492317   91.367752
H   81.171310    1.721137   85.770653
H   61.215977    9.793821   31.044304
H   12.251978   79.555931   11.698033
H    9.182346    4.117191   79.095390
H   20.399582   87.453133   25.821289
H   44.955032   25.038113   79.494530
H   16.932333   39.584167   12.161972
H   78.090965   48.669979   15.366264
H    9.528763    8.272676   33.592194
