100
TIME:    1.869, STEP:  1869
H   90.929840   50.624466   97.434891
H   49.280632    6.078574   95.896263
H   11.881269    8.367675    1.395365
H   81.790314   55.647606   37.716915
H   78.430588   22.566105   15.028664
H   99.034065   99.183266   63.840008
H   55.014942   87.541283   36.611092
H   72.986580   50.293537   36.588791
H    7.684410    6.596645   82.440468
H   23.764814   43.219429   80.878349
H   26.405197   41.445652   59.717121
H   84.505814   17.373720   59.891472
H   24.375648   48.630348   39.365532
H   62.539619   99.315071   99.470802
H    3.233410    3.080896   60.932938
H   26.376663   48.260216   77.898209
H   73.802658    5.596962   43.522240
H   41.084190    3.811080   34.751755
H   74.372688   56.761986   61.826931
H   42.163490   66.121201   43.582832
H   53.367523   70.153198    6.516842
H   41.559818   46.566803   60.114006
H   60.790184   79.421761   78.875549
H   45.391182   59.097446   68.267044
H   62.737663   37.945236   50.351875
H   38.089123   71.916840   13.991204
H    0.912420   64.787247   37.054562
H   74.840561   43.678310   28.551073
H   51.810516   18.662344   68.823723
H   72.659233   44.582352   31.968227
H   89.622902   89.647720   61.515957
H   83.767059    0.876048   26.241356
H    2.006827   31.736809   66.171234
H   57.071083    2.440131   93.013733
H   34.314903   17.638252   38.537102
H   35.057354   31.303366   14.214704
H   59.059662   36.090187   55.735172
H   86.742043   24.746098   54.330601
H   66.698929   40.610359   62.993217
H   87.154411   37.213657   85.083450
H    7.516533   20.313440   86.377365
H   63.646118   95.738518   90.608948
H   27.339628   74.707779   36.473297
H   60.010857   44.095306   63.473965
H   94.533821   58.147602   16.045473
H   53.974857   98.565102   90.759773
H   55.814991   26.562624   43.593697
H   56.339230   14.626478   84.221077
H   19.663717   77.658409   69.920731
H   65.088310   59.196774   52.943432
H   43.402027   89.203346   73.123291
H   95.963478   90.309799   51.366467
H   47.649956   32.845825   94.320824
H   33.410984   76.713402   14.290442
H   91.968643   22.351149   16.265882
H   95.904770   10.567719   29.001633
H   14.738977   35.617973   33.744987
H   86.887543    0.383254   65.414505
H   37.680611   17.738241   68.000259
H   35.683804   71.446243   10.451140
H   77.598495   91.655220   68.672813
H   32.576691   10.547848   10.787162
H    1.005204   79.701317    5.337449
H   71.381226   51.961388   76.398705
H    6.505071   11.569737   69.618332
H   86.529732   49.359474   56.695217
H   37.615616   12.979692   57.297863
H   51.261208   24.427597   55.551609
H   50.054039   15.491898   43.012619
H   68.247131   42.148613   97.797546
H   62.683281   68.234001   39.731724
H   19.859800   89.496475   93.460930
H   85.129044   25.858158   13.824108
H   89.057884   31.105173   92.128334
H   52.282639   31.303064   43.081158
H   69.845436   27.357599   70.168571
H   36.647911   64.555649   24.102808
H   19.789349   28.510946   17.657139
H   51.140038   48.027195   38.530708
H    7.866096    7.163752   59.905159
H   47.456944   48.617321   91.694801
H   81.556458   56.433548   30.493292
H   36.054417   38.452118    7.912885
H   78.740913   72.094337   92.717407
H   61.324753   31.977188   66.573868
H    8.273655   77.707298   71.572258
H   91.980995   67.461395   12.664461
H   86.042374   55.657883   76.313454
H   94.468697   90.109627   12.908684
H    1.093192   32.379738   91.030327
H    0.509691   74.351196   72.931595
H   16.574358   36.072063   69.132820
H    5.203091   83.633347   63.506088
H   27.873623   26.600901   52.834908
H   24.278282   82.316071   59.034081
H   48.293335   21.926321   70.912613
H   14.250125   74.938622   29.701523
H   13.727471   32.151093   26.131832
H   19.677952   44.906818   88.493698
H   55.312576   30.695694   17.674305
