100
TIME:    0.851, STEP:   851
H   59.772621   43.980232   98.366898
H   77.598106   50.885860   31.680998
H   94.385803   35.127895   13.347733
H   81.619446   97.587914   93.516716
H   87.548721   40.968925   42.630592
H   14.820095    0.287451   63.023876
H    8.370251   18.800673   57.002079
H   52.999374   62.223194   30.057991
H   32.708794    4.473160   46.520119
H   51.584068   28.603359   41.015045
H   21.097076    0.484543   57.776108
H   23.359592   66.346947   32.353371
H   89.130295   10.220764   40.546379
H   12.945160    2.453439   22.001293
H   90.852379   94.009949    9.864935
H   67.307297   37.302547   62.399887
H   55.647408   38.274979   50.836510
H   19.329597   53.316574   70.043747
H   58.515724   14.052775    8.197702
H   69.613594   87.689789   74.244972
H   13.776993   71.498260   34.146660
H   43.947315   45.223160   46.794910
H   74.381950   87.701088    8.001301
H   39.974426   46.888157   43.872505
H   99.148064   18.683804   42.841454
H   42.756924    2.253265    9.409278
H   88.696152    7.101213   16.853315
H   60.735123   96.160995   94.902512
H   29.675354   26.301176   16.945126
H   33.623684   69.777603   51.040432
H   49.577671   98.356377   42.070702
H   19.489660   29.000153   20.482719
H   30.300716    6.219423   74.461754
H   14.058881   95.733742   35.899269
H   59.618889   94.590950   76.547928
H   46.546387   51.335583   17.716162
H   61.420116   73.370461   75.520821
H   28.817558   43.378468   82.493950
H   12.461924   62.341652   60.563446
H   83.038475   32.515217    4.988581
H   77.084534   85.381187   62.393200
H   55.138145   50.052277   42.781467
H   18.570997   68.603134   62.940552
H   25.016958   27.032946   63.939339
H   82.837227   98.315964   28.930189
H   67.082802   79.201958   86.655495
H   45.065845   71.648560   34.894966
H   56.284863    4.145284   21.232954
H   89.906548   61.968315   10.526626
H   43.737980   43.702160   24.144989
H   43.479694   87.484718   62.389683
H   46.489449   84.772720   18.194855
H   26.532236   26.943115   53.446068
H   56.982990   93.318657   69.368912
H   73.012421   33.107754    7.627403
H   94.631027   11.637585   63.656754
H   50.200500   64.991722   36.924706
H   62.691345   96.520912   91.634964
H   57.392479   74.725204   46.152035
H    2.862410   93.197922   39.405113
H   13.382172   38.995422   48.044411
H   68.707489   20.024368   56.851379
H   31.955357   49.121971   75.176125
H    1.475383   46.423714    4.033842
H   66.101845   92.875938   74.813774
H   49.066994   99.967445   96.503624
H   19.291380   77.782837    8.148151
H   21.581566   66.206711    6.885322
H   99.314629   88.638901    6.858299
H   47.624878   90.945946   99.941162
H   95.008385   37.500057   51.941013
H    3.798761   23.282646   18.927431
H   51.505249   76.211708   39.928066
H   11.460164   95.526291   52.631142
H    3.202846   29.854570   65.909477
H   45.778248   62.115158   38.668140
H   44.220440   52.786980    6.092249
H   71.961853   95.075706   61.439251
H    2.341828   51.009617   27.177410
H   57.790909   62.608650   47.606720
H   27.535297   38.085644   30.850365
H    5.173885   49.785233   15.617720
H   71.640907   21.460936   10.953352
H    8.710207   84.982765   85.700630
H   10.892529   95.652695   65.257561
H   31.705860   40.313374    0.879145
H   23.991095   41.478294   64.122055
H   69.654587   37.160728   86.894859
H   73.343208   46.789497   21.237774
H   91.096786   74.267578   54.635464
H   58.848972   19.383741   51.433300
H   41.252338   59.509315   49.737259
H   39.885231   53.128426   84.750328
H   29.480104   64.853676   84.196877
H   41.879383   73.502777   35.640709
H   64.210693   62.125908   23.493889
H   95.054306   16.517332   88.247086
H    9.989736   23.483429   42.420052
H   68.172386   40.518620   73.766579
H   92.091415   56.846058   15.722366
