100
TIME:    9.484, STEP:  9484
H   75.957916   52.293526   90.463150
H   38.550613   18.787479   76.102287
H   42.792118   56.220695   12.012291
H   83.068466   41.910393   20.311819
H   10.214449   32.941406    8.556211
H   80.949707   90.933372   17.977821
H   55.912365    1.742084   32.114330
H   74.462601    9.089039   37.404533
H   20.493050   74.443985    3.102779
H   15.716330   52.561192   79.057686
H   18.076447   47.850311   26.200357
H   93.862099   99.074715   17.847538
H   38.986526   87.934746   82.613571
H   85.490860   75.843544   78.976997
H   95.798653   22.875191   94.815697
H   20.192085   82.223557   45.786194
H   61.460152    9.264454   36.754288
H    3.876689   33.347343   70.762772
H   92.984497   76.219604   63.013813
H   36.999638    4.410536   62.047417
H    1.482257   12.055330   99.831573
H   71.620667   56.674133   11.628036
H   59.117134   17.496271   61.002243
H   37.857441   50.284393    2.709365
H   90.382797   34.032013    6.578254
H    2.887423   46.515182   98.394936
H   44.263260   48.239124   88.142746
H   32.309570   99.120773   80.263695
H   17.391811    9.554890    8.858704
H   64.651665   56.110519   37.338966
H   89.310524   72.503738   59.035202
H   64.582870   90.479584   21.282661
H   38.397781   74.587952   52.190575
H   78.823441    4.570729   72.205727
H   44.925270   41.598091    2.066123
H   97.065750   28.260553   89.610725
H   89.438019   57.210701   55.767414
H   71.999199   85.392433   91.701180
H   44.750172   74.777184   25.242134
H   69.905869   24.322456   84.216324
H   87.087601   81.601013   65.783409
H    0.953885   78.794678   64.134148
H   92.906464   20.380795   86.511955
H   73.764565   71.837929    8.029368
H   33.989395   57.715206   67.685623
H   55.706833   43.803600   21.691137
H   15.839269   40.612316   16.507895
H   56.766476   93.052124   55.393345
H   42.255829   46.984821   66.155518
H   24.852522   75.091545   20.411274
H   44.090015   54.118622   51.501541
H   66.051468   83.694473   51.470589
H    5.589705   77.000183   52.057510
H   57.060333   52.466759   50.318550
H   85.664406   89.737152   81.004303
H    5.408070    2.557476   69.769043
H   97.497208   15.889954   57.994789
H   19.857740   81.240150   69.268944
H   38.262249   39.503128   83.398918
H   33.172581   56.760937   93.863075
H   57.961857   37.521313   74.953453
H   62.312218   39.666336   66.236198
H   17.929016   60.111961   83.124115
H   94.288940   93.426361   69.651474
H    8.758368    3.371000   78.772102
H   18.732399   70.795891    6.952659
H   26.649723   76.247253   24.950077
H   25.241165   59.937630   19.592651
H   29.583200   68.326584   65.414307
H   22.640091   25.001459   81.728210
H   20.865082   50.107090   48.389046
H   92.283028   36.694725   51.218464
H   88.617523   49.191975   18.578701
H   21.430767   49.177120   39.646034
H   19.324530   42.279926   20.384710
H   49.867195   15.407798   57.775383
H   28.132595    4.935256   58.945786
H   77.547600   30.592827   38.216232
H   16.306585   25.661221   23.498865
H   34.420555   92.380379    3.866214
H   96.480659   27.398691   46.829185
H   52.966934    5.981628   93.572578
H   17.757093   65.724281   33.151371
H    2.633630   23.725780   97.201134
H   90.539627   55.637848   28.386251
H   33.016994   57.418884    0.380806
H    0.569759   13.788051   75.776863
H    8.557222   46.157631   97.245758
H   52.505131   66.118309   50.623909
H   27.825594   19.078110   63.244240
H   12.147516   85.538528   33.746849
H   80.018860    8.767122   14.235902
H   93.396301   12.081137   52.416862
H   62.616188   88.461411   68.193398
H   92.616989    0.209838   34.016792
H   77.261093   21.219244   77.587891
H    9.807277   11.945945   91.754257
H   19.970995   55.727535   88.485069
H   56.917107   77.756401   50.653835
H   28.299309   35.260181   84.116211
