100
TIME:    6.857, STEP:  6857
H   53.611160   93.201241   92.868240
H   11.102840   76.435417   10.460658
H   97.635056   67.224022   42.851727
H   82.627533   50.142426   64.308960
H   33.753525   22.376127   79.784195
H   21.684635   93.779396   57.818600
H   93.595184   24.354816   26.679483
H   80.939613   81.819366   78.607201
H   85.069725   27.020905   68.464348
H   87.470467   14.841202   76.197029
H   62.433594   42.148716   79.248146
H   94.127075   67.396622    4.840717
H    6.507339   46.932484   43.675468
H   15.563681   83.940681   79.061119
H   63.891121   57.531792   21.149906
H   25.819069   11.990795   63.850098
H   72.707924   35.507877   97.608101
H   47.701214   61.177414   61.824738
H   52.063725   66.014923   24.615582
H    7.779617   60.193546   83.189079
H   57.372620   73.581818   71.130104
H   19.767609   53.186752   35.341370
H   94.191368   38.854683   36.164520
H   81.944099   18.857882   97.812592
H   84.339058   42.366051   87.180397
H   15.275921   23.955975   45.608963
H   70.792961   57.441315   36.021702
H   53.967354   76.501289   93.427933
H   60.269783   71.212715   33.037231
H   63.920902   21.129356   28.500038
H   85.921684   36.936157   66.874992
H   98.712555   63.056644   64.477226
H   53.355663   66.791603   15.529668
H   67.826347   45.319534   82.877213
H   10.304144   40.498909   42.237320
H   68.704964   22.498516   97.868202
H   37.474632   53.417603   48.770054
H   80.579460   33.466541    6.321815
H   55.637798   32.012749   79.818237
H   17.341030   70.254654   77.529587
H   66.624237   91.464256    3.893401
H   22.343491   68.492874   30.022499
H   70.298615    4.621050   96.762993
H   41.500553   27.737143   51.176285
H   61.860794   61.347637   42.882511
H   89.613701   93.703629   11.018549
H   95.304977   97.744339   91.284828
H   56.606136   65.994858   92.850250
H   65.464058   64.552101   70.947189
H   69.703369   35.101360    4.089982
H   43.030758    7.644167   25.709476
H   38.377140   27.460526   23.917061
H   51.108196   61.767944    4.624300
H   17.900925   95.322845   34.395950
H   94.829971   59.520493   58.672268
H    2.136144    5.320825   59.198334
H   30.955927   91.690392    8.145220
H   15.469493   29.328772   36.935776
H   31.074020   28.497379   85.072105
H    6.528435   54.840870   68.581200
H   92.245079   59.687737   79.769943
H   55.549599   64.118088   85.096481
H   39.582241   39.374062   63.265381
H   13.897167   79.116074   40.973064
H    4.487948   13.186672   34.131962
H   80.111176    1.391633   51.623199
H   37.418961   85.426270   98.117386
H    6.705851    9.696139   94.006851
H   98.652779   57.086044   30.173527
H   69.304161   93.028740   87.294250
H    4.291001   28.851410   79.895729
H    8.588885   23.947708   58.665977
H   59.902069   79.132523   85.934875
H   79.258430   15.440304   95.734467
H   92.774895   38.417561   21.205330
H   87.760735   47.042683   34.540543
H   89.544525   32.309971   12.351385
H   54.134655    2.357327   93.125450
H   90.331673   33.377552   94.183479
H   63.251236   35.486885   30.184410
H   45.053864    0.220524   89.816269
H   55.839767   88.939423   13.348152
H   51.596687   21.791296   82.969452
H   21.900673   98.927147   37.135937
H   18.450346   19.975334   83.043190
H   93.475204   60.925430   17.954285
H   25.118319    4.792785   50.511620
H   66.308434   56.370670   24.481438
H   97.984238   12.385750   72.109383
H   60.088696   27.160206   69.336197
H    4.639376   43.689659   78.269089
H   85.647461   11.191487   64.175331
H   25.000263   33.263508   49.266914
H    9.969678   29.179041   89.156021
H   38.039757   35.521515   73.653015
H   60.281677   24.955973   13.276144
H   18.326029   61.188858   42.837204
H   25.041727   25.744076   41.227127
H   82.061485   66.412392   70.692360
H   65.124306    2.673843   37.184040
