100
TIME:    1.517, STEP:  1517
H   14.734009   82.904739   97.757156
H   59.072136   86.994545   73.692162
H    5.830612   83.043388    5.527738
H   81.731232   70.149559   57.012569
H   81.583420   94.351768   24.572090
H    4.492387   99.564613   28.979040
H   73.463341   63.774166    9.084236
H    0.653087   19.842121   68.908943
H   16.337242   40.440094    4.596644
H   33.383293   38.165230   67.096123
H   59.147385   27.282078   93.624496
H   97.938919   99.730278   84.947624
H   46.765511   69.926735   74.350945
H   79.968819    0.400130   72.685158
H   98.951775   34.522053   77.852371
H   40.529495   79.048698    7.116879
H    2.102965   82.318619   11.474843
H   33.561974   20.929153   46.954880
H   68.888802   41.994164   43.283230
H   51.646156   73.597763   19.617014
H   74.255707    5.194584   16.070675
H    7.807702   46.102203   90.085060
H   65.489891   82.284554   88.946350
H   78.095772   54.875767   94.408157
H   75.327507   65.861671   47.754951
H   39.703136   82.406586   46.983841
H   31.265827   79.418106   30.069456
H    4.542350   27.248135   16.915941
H   44.156708   86.726288   85.463371
H   59.161678   53.294266    3.986123
H   75.776222   58.081802   89.370209
H   61.541477   10.600839   58.827782
H   77.213699   57.491188   34.460297
H   42.198524   34.698647    7.842833
H   43.064415   44.246651   17.103752
H    4.451654    3.651582   15.424542
H   25.299385   48.980812   27.998846
H    1.292149   31.188725   29.491978
H   82.522171   48.124519   96.729141
H   20.309332   70.167503   57.389446
H   31.570976    8.235194   78.084396
H   95.281860   79.942131   74.071350
H   24.307646   72.596939   11.048249
H   82.488884   38.195160   29.058565
H   25.067368   72.036118   85.923660
H   58.516117   91.851234   89.331062
H   52.098194    7.573413   40.585884
H   56.320431   11.002333   62.441296
H    9.375386    6.812128   83.960770
H   57.706135   53.839108   77.563316
H   43.428883   23.187159   69.411865
H   78.856544   22.972445   74.474380
H   40.347954   30.804810   14.764202
H   41.561619   82.455101   98.758438
H   19.991203   91.493164   13.278942
H   95.464340   10.937653   40.984543
H   92.423416   45.774712    0.266658
H   13.098166   33.626106   74.480911
H    9.920113    2.864919   95.022232
H   58.911098   44.390095   20.462486
H   55.394390    8.025323   96.119102
H   45.069855   13.824886   26.714920
H   77.130615    3.704890   29.486183
H   47.209435   50.046593   85.953880
H   92.534126   39.683857   36.836323
H    8.153603   66.858498   35.882229
H   65.856827    0.810617   40.303722
H   75.576149    4.295458   38.723972
H   32.509361   40.784378   65.090370
H   61.115402   24.443377   98.538757
H   73.860527   92.183708   43.953403
H   48.883068    1.178675   67.690422
H    8.080112   43.268559   22.850231
H   96.803001   53.381729   13.048775
H   35.312668   30.802210   16.396778
H   61.524815    4.797615   93.855095
H    4.688329   95.063461   17.876368
H    3.251750   51.528564   98.217163
H   34.266747   49.058445   34.604439
H   25.129105   26.334528   90.230354
H   40.568516   44.975719   70.656227
H   55.145893   54.134720   59.926956
H   13.783235   32.576141   74.386658
H   54.526974   41.973248   24.868782
H   78.463913   53.995987    0.696417
H   16.375950   64.779076   47.128410
H   68.471718   93.054657   95.879410
H   80.375870   83.840012   79.974297
H   87.164009    9.708381   15.788261
H   32.214966   46.862892   78.445854
H   86.104408   55.344120   65.498001
H   90.529594    9.599077   62.424957
H   82.617928   73.084518   36.274643
H   93.851173    5.249416   29.102566
H   30.365074   13.845490   50.945213
H   19.219604   35.825737   89.093765
H   42.189743   54.737942   49.945175
H   12.435052   29.154022   31.764767
H   36.445518   43.389484   17.979450
H   33.452225   39.737736   51.577217
