100
TIME:    9.871, STEP:  9871
H   49.786285   16.804199   90.108841
H   27.862862   39.759624    0.502403
H   49.444271   84.063484    7.469015
H   83.133423   25.965925   99.098648
H    6.746649   63.961166   98.063377
H   74.950073   90.514107   56.304665
H   35.631123   27.875315   62.378231
H   44.045166   42.568447    1.870579
H   10.979851   37.235626   78.743813
H    5.144632   58.117939   94.210304
H   82.078583   63.422195   88.922096
H   79.093315   18.472313   90.300865
H   14.308847   64.509010   44.154846
H   66.328644   74.650703    8.426807
H    0.499227   88.306458   76.202660
H    4.630615   48.375229   13.661382
H   30.340004   34.860527   71.984421
H   12.152762   14.515875   57.347733
H   99.013657   92.452866   83.413452
H   26.574093   96.191376   88.396202
H   78.517090   73.529427   89.326309
H    8.722733   57.187881   78.671463
H   53.950119   14.349932   49.930084
H    1.899257   54.914032   73.968811
H   76.541122    3.339989    9.434872
H    1.061808   35.106430   61.977703
H   10.891232   32.150539   95.819443
H   99.655922   17.184620   93.054253
H   25.806652   44.666111   90.565109
H   79.491310   46.532364   68.104805
H    4.540565    7.207915   28.416992
H   89.018387   79.785355   85.456184
H   65.658730   46.272751   87.054588
H   95.174805   69.104454   55.901604
H   35.293968   12.296730   25.612555
H   30.706053   58.574467   88.394264
H   26.556667   43.038338   86.261612
H   56.003620   78.312157   19.010559
H   28.413570   66.344627   87.739494
H   33.455845   88.092697   14.663995
H   60.638428   94.881699   74.900963
H   68.339577   80.316818   83.883293
H   96.236969   22.702995   14.465797
H   49.055622   78.333595   45.866627
H    0.397158   42.410465    0.788678
H   50.714027   51.185040   23.263384
H   18.865620   61.661228   20.223711
H   56.790096   97.038101   79.338730
H   53.567154   14.934587   50.716911
H   32.975060   80.984886   93.352425
H   46.245396   16.919121   52.227875
H   84.859375   47.783913   26.066282
H   13.617020   79.244141   29.579712
H   48.099266   46.151199   67.396248
H   54.851326   23.651808   84.293472
H    5.890078    2.150390   56.594650
H   22.030914    4.722683   94.801598
H   91.041214   44.693169   59.301048
H   68.785973   55.857445   53.689075
H    7.635511   86.505905   82.855873
H   82.374481   19.524340   44.782154
H   48.576836   36.064194   48.724846
H   44.225864   33.741089   56.603683
H   20.863609   95.534500   59.144844
H   24.119144   72.463142   14.811622
H   94.959045   51.556908   29.835413
H   95.599190   89.628326   43.634533
H   98.508110   82.070137   38.093491
H   48.872375   40.519226   41.141354
H   30.499847   44.438267   80.907394
H    8.574539   23.773067   43.747597
H   60.413261   23.845116   79.585480
H   63.384811   30.050276    8.655094
H   12.912586   24.685062   16.652361
H   37.966087   42.849773   49.727406
H   59.017227   40.211399   31.736603
H   63.280220   71.440842   65.809746
H   95.729561    5.289214   59.589928
H   34.863525   24.524479   27.818483
H   15.442666   71.298988   70.525795
H    4.056592   31.402384   69.959663
H   82.007347    8.493974   61.194893
H   42.236038   72.196327   70.007889
H   29.258480   56.842239   61.853081
H   71.696289   31.429680   90.871628
H   24.109074   71.633949   27.255558
H   26.416689   85.649727   94.230461
H   14.780514   15.190234   93.236160
H   60.536137   44.570412   47.458748
H   93.609619    3.154869   77.079849
H   27.985312    6.436151   41.919579
H    8.652941   37.872620   21.608484
H   18.203480   23.693617   82.344170
H   97.834511   11.775590   97.642387
H   85.926453   65.546577   42.909950
H    9.225768    5.937752   57.598953
H   79.088921   34.154022   69.497742
H   19.223993   74.876663   80.713890
H   38.481224   79.427559   18.237507
H   52.336227   25.329678   46.835629
