100
TIME:    4.923, STEP:  4923
H   84.400307   70.557167   94.638870
H   64.513954   71.635056   88.516663
H   64.376724   28.083900   65.559044
H   82.302917   29.823521   70.317879
H   51.076187   67.357666   32.220917
H   51.682056   95.874641   66.288231
H   94.956322   93.761566   75.438019
H   32.948204   14.504533   56.181194
H   32.611198   12.967102   90.201454
H   40.306923   87.070351    0.467210
H   42.329559   64.330139   65.540283
H   67.945595   70.455238   42.504143
H   29.920212   63.886772   35.847900
H   11.323535   89.901802   31.882654
H   40.382561   30.284895   14.127653
H    3.580121   81.145401   24.389236
H   28.228859    7.589780   21.548460
H    6.343040   55.280216   28.868948
H   21.945797   84.879105   22.725260
H   59.880402    1.270552   51.513344
H   72.138924   66.118011   23.625942
H   34.353149   50.619339    0.039379
H   20.014885   54.583778   91.496704
H   61.641254   95.721649   41.448364
H   53.509064   95.740356   72.897316
H   24.104509   81.121170   27.481775
H   37.562973   37.833714   97.645363
H   17.153652   86.228714   29.500231
H   18.217323   95.745354   24.458931
H   89.763458   68.995384   74.753090
H    9.805455   63.509472   19.886848
H   76.598488   16.496162   43.517265
H   17.126457    8.292536   41.299675
H   86.109604   22.559052   64.352943
H   58.399017   86.778946   24.504814
H    0.586019   71.019081    3.949507
H   51.978279   24.245270   96.378586
H   60.513454   68.862358   69.842949
H   37.271503   74.153740   67.237015
H   99.502235   51.308998   25.365370
H   98.800079   25.103796   58.329449
H   89.169273   32.804283   34.085705
H   53.645519   93.021713   57.066414
H   64.992035   95.275208   62.080154
H   29.622252   37.654724   77.384789
H   14.574057   56.815510    3.160369
H   80.195602   92.566795   72.722725
H   56.502331   46.075272   73.185280
H    8.936317   24.727039   48.094490
H   29.127766    5.662558   39.342758
H   43.169025   94.359253    5.323168
H   44.380547    6.921389   50.877045
H   10.989135   50.553955   16.948397
H   62.683105   26.880280   49.054344
H   48.818634   90.031258   42.220165
H   99.725998    7.355205   25.036270
H    8.349524   47.495735   24.205833
H   59.478653   11.970898   86.749496
H   78.542885   46.778214   33.541367
H   34.151478    6.185414   23.588753
H   70.247223   49.628849   30.560104
H   24.188578   82.119492   72.605362
H    8.282372   71.346359   95.885559
H   81.093605   68.580826   93.478714
H   27.724043   67.653259   54.026768
H   98.918480   97.536278   37.269508
H   92.586609   18.564026    4.744079
H   40.300575   99.088211    1.550468
H    2.262478   96.050957   51.471588
H   30.126623   95.754395   91.366699
H   65.705086   60.439163    3.091796
H   68.042328   88.140030   17.060387
H   86.002213   74.793709   35.523010
H   21.834599   37.842251   10.645855
H   99.529793   35.658329   74.594696
H   42.041885   23.090445   64.672684
H   13.931086   99.852974   78.114311
H   63.271816   28.817116   86.318565
H   97.589836   39.058323   72.611305
H   58.091980   40.836605   96.800476
H    7.207469   80.212357   74.225212
H   10.703404   76.378494   75.119164
H   29.265383   89.449280   98.784805
H   88.844376   33.431198   13.777511
H   12.619676   40.948776   70.522789
H   37.989300   89.884331   83.651184
H   95.950752   45.410721   58.291183
H   35.198151   11.147537   44.546295
H   57.849960   20.067476   87.927010
H   31.079000    6.728592    0.203970
H   25.492149   39.259525   37.426556
H   42.551044   65.735931   27.331404
H    1.027451   75.236473   99.707687
H   23.054192   11.848588   58.750065
H   71.475151    8.756607   29.210670
H    0.541173    1.328380   13.169764
H   71.837822   50.201473   54.062805
H   24.936033   58.154083   77.256187
H   74.192780   58.071415   32.684258
H   44.996792   52.299908   23.492002
