100
TIME:    5.199, STEP:  5199
H   65.735268   45.246498   94.386185
H   56.891273   86.589828    5.918688
H   69.123001   47.940567   62.319363
H   82.349243   18.451618   55.189209
H   48.604080   89.480286   24.738235
H   47.401142   95.575630   93.620384
H   80.490074   12.398283   97.021576
H   11.255150   38.381245   30.838940
H   25.826591   86.430664   72.829323
H   32.764259   91.033302   11.275686
H   16.656708   75.435669   38.955540
H   57.411499   84.289772   22.858332
H   12.308029   47.196892    8.423096
H   97.657921   89.051094   52.887138
H   43.739067    5.632065    0.860199
H   92.482712   57.005508    1.478287
H    6.034432   25.844448   46.673828
H   12.244901   41.852085   19.301641
H   26.244610   96.456314   37.265209
H   52.445129   95.408485   70.304726
H   55.760689   38.640724   16.134869
H   60.813538   50.985733   76.535416
H   16.329887   52.339088   83.600281
H   35.995777   99.023407   20.949818
H   43.637482   73.853577   74.935646
H   22.846346   72.963638    1.527866
H   13.762907   26.360203    3.121264
H   93.865608   99.111465   38.624283
H   24.218605   20.785936   11.412987
H    0.346750   62.164452   96.694618
H   20.668076   88.259979   98.050606
H   94.025368    8.870883   17.966545
H   36.567699   88.099083   66.163933
H   97.771042   97.265495   52.725197
H   51.538605   65.915543   41.310509
H   24.577616   92.636330    3.081396
H   78.450348   14.136795   18.126019
H   49.106808   63.812778   89.320793
H   25.620594   68.139824   40.490250
H   73.505104   25.470062   47.081264
H   79.937103   34.573189   64.831886
H   64.363976   45.192192   47.050579
H   56.022869   94.676804   77.002571
H   47.369205   99.907776   89.066818
H    5.681349   26.766083    1.002506
H   11.012770   62.079792    4.282352
H   82.351852    7.576741   75.371712
H   56.517071   48.917984   90.262611
H   17.003304    1.869467   37.083717
H   34.916370    9.863455   20.039688
H   43.147968   67.713562    8.232738
H   57.793938   81.311356   32.757385
H   16.714108   52.154297    0.918636
H   56.292267   22.376160   61.233788
H   26.843166   14.220181   44.568035
H    0.071025    7.064879   15.640579
H   25.846123   39.531929   50.455650
H   38.926895   85.906059   79.640610
H    0.311723   58.439651   12.352554
H   15.939165   27.400448   15.738655
H   87.657257   36.794529    9.041654
H   14.393854   79.550522   60.117828
H   27.020060   52.512863   76.959412
H    0.045021   70.084305   85.986588
H   38.679657   45.608898   79.729103
H   81.963280   83.815453   53.588783
H   70.442932   28.106064   18.070019
H   21.235451   14.873527   14.744864
H   16.018667   76.219353   34.160522
H   35.717644    9.636206   90.785522
H   56.941109   41.660416   99.780800
H   45.285515   78.980179   37.268135
H   68.006790   61.140709   28.445709
H   15.759617   20.374660   94.247124
H   12.836534   36.052097   95.517059
H   48.567490   40.780006   46.102329
H   38.990414   75.932076   82.995354
H   76.238800   10.770103    1.559889
H   10.824941   38.247623   75.689857
H   44.556686   25.804016   73.022766
H   12.608135   83.067703   90.721367
H   31.412956   78.180984   52.040550
H   46.723846   94.065002   25.070005
H    7.833261   57.048874   88.568848
H   99.180397   23.684036   43.767601
H   31.636364    0.021233    2.817442
H   14.384192   25.343277   71.451889
H   39.641205   89.050491   41.676208
H   63.577499    4.700649   85.669685
H    6.676745   95.373337   10.069960
H   36.787193   54.161655   43.255169
H   62.972248   86.494049   32.589371
H   18.719225   83.517128   21.051228
H   49.731026   28.590406   77.359764
H   66.703606   84.034874   35.552616
H   23.337708   90.429291   98.913605
H   49.929985   66.040642   38.189941
H   25.948881   60.504059   72.838402
H   61.044708   59.261143    9.565636
H   62.139400   45.218395   96.904022
