100
TIME:    5.094, STEP:  5094
H   72.836098   54.875557   94.482315
H   59.791206   80.900513   99.298096
H   67.317352   40.386322   63.552235
H   82.331619   22.777885   60.945015
H   49.544556   81.064072   27.584896
H   49.029751   95.689384   83.222282
H   85.993538    5.308029   88.810440
H   19.507942   29.297726   40.480015
H   28.407692   96.525955   79.438286
H   35.633751   89.525658    7.163730
H   26.423553   71.210739   49.069256
H   61.419334   79.026634   30.332067
H   19.008316   53.546303   18.856445
H    2.856847   89.374733   44.896301
H   42.462135   15.010959    5.907570
H   96.704437   66.189163   10.194382
H   14.478060   18.899830   37.115265
H    9.999656   46.960613   22.941378
H   24.609192   92.051941   31.733706
H   55.273766   97.638710   63.155830
H   61.991539   49.094101   18.984734
H   50.747086   50.846344   85.477142
H   17.731789   53.193047   86.604355
H   45.752209   97.767303   28.747993
H   47.392975   82.180069   74.160194
H   23.324995   76.067047   11.401602
H   22.817186   30.724922    1.037739
H    2.725436   94.210419   35.153175
H   21.935509   11.259718   16.376118
H   96.320511   64.763176   88.347298
H   16.535671   78.844009    6.357872
H   87.395576   11.771817   27.686928
H   29.171421   95.781502   56.704704
H   93.334625    6.888056   57.148796
H   54.148544   73.852707   34.917038
H   15.450437   84.412376    3.411644
H   68.379089   17.982410    9.852548
H   53.446293   65.733864   81.910744
H   30.053005   70.427727   50.665649
H   83.395317   35.299927   38.819660
H   87.113235   30.970701   62.358135
H   73.800774   40.479401   42.118290
H   55.118443   94.047150   69.417885
H   54.073498   98.145386   78.800095
H   14.789301   30.908501   92.017479
H   12.367607   60.077076    3.855490
H   81.531540    1.866279   74.363945
H   56.511463   47.836517   83.765800
H   13.934341   10.565319   41.272598
H   32.714184    8.265287   27.383247
H   43.155979   77.850510    7.125836
H   52.691017   91.054169   39.650734
H   14.536088   51.545471    7.016928
H   58.723564   24.089684   56.600304
H   35.203552    5.018302   43.674824
H   99.939957    7.175329   19.215027
H   19.189896   42.561638   40.469307
H   46.745499   95.821907   82.345078
H   92.030113   54.003235   20.413486
H   22.867764   19.329502   18.725105
H   81.033875   41.677151   17.228127
H   18.120108   80.527847   64.868927
H   19.891592   59.677780   84.159576
H   92.835243   69.512329   88.836853
H   34.511604   53.995472   69.951042
H   88.413628   89.035332   47.380363
H   78.867157   24.475941   13.000343
H   28.488487    8.868182    9.725257
H   10.785370   83.763985   40.746254
H   33.590759    4.354912   91.006622
H   60.275230   48.804504    1.040372
H   53.942856   82.464905   29.580235
H   74.852875   66.334511   31.138161
H   18.070751   27.020073    0.485957
H    7.774264   35.902294   87.557465
H   46.084923   34.050079   53.167110
H   29.456793   85.032417   81.138435
H   71.305710   17.635815   95.761452
H    5.789956   38.556042   74.518669
H   49.705841   31.522911   82.068634
H   10.553549   81.981430   84.445656
H   23.534271   77.495255   60.820457
H   40.082039   92.309021   15.070062
H    0.609466   48.063889   98.159454
H    4.293150   30.252144   53.946205
H   34.053242   96.164803   95.525894
H    7.371480   32.977631   66.445099
H   37.950912   97.457092   42.768089
H   61.398544   10.546778   86.528450
H   15.960336   99.692795    6.316624
H   32.490166   48.492367   41.037762
H   55.203312   78.596939   30.589056
H   11.988616   80.367256   12.931416
H   39.582504   22.221022   70.279762
H   68.518867   93.439629   33.139744
H   14.665145   94.575714    4.337116
H   58.264488   60.014874   44.228531
H   25.563559   59.610046   74.519081
H   66.046692   58.808529   18.360764
H   55.617756   47.912449    7.018958
