100
TIME:    3.727, STEP:  3727
H   65.280426   80.236481   95.733841
H   97.596230    6.816025   13.097757
H   43.818481   42.038918   79.592918
H   82.102173   79.097404   35.873341
H   61.788651   71.492989   64.650299
H   70.229622   97.170357   47.843658
H   57.636890   13.001797   81.909187
H   26.951447   11.035386   65.994148
H   62.011162   27.957642   65.486992
H   72.991798   69.897560   53.636864
H   53.578568   16.206181   80.745628
H   13.590309   10.505804   27.636717
H    6.188523   36.218826   54.694923
H   70.541786   93.588203   40.866856
H   25.835766   37.116348   71.620186
H   51.670181   85.751945   23.667929
H   24.404091   28.482922   12.671865
H   80.783531   13.456771   70.335144
H    3.317895   34.705872   59.713497
H   92.107872   26.669302   70.084129
H   43.111252   85.182678   56.083878
H   19.691467   49.031631    1.889812
H   35.983208   64.310768   25.716904
H   72.762810   81.381195   30.273838
H   96.285919   90.589233   64.064552
H   29.567675   16.557840   39.838997
H   40.695507   87.550186   73.920998
H   18.068701   30.403458   89.965904
H   92.210449   87.234787   80.995308
H   43.902435   98.596092   79.674591
H   62.738331   56.262127   14.510567
H    1.082382   49.536903   54.236992
H   32.881985   95.797707   33.554550
H   35.576706   32.165352   14.738655
H   88.127472   77.187431   51.675613
H   96.608650   77.261322    7.821889
H   37.266914   68.044907    2.138437
H    9.949344   90.743523   85.445549
H   87.754486    0.214002   83.138466
H   12.152046   63.274963   31.266512
H   80.537964   84.066040   30.152205
H   96.659592   79.128677   77.899078
H   43.343670   85.849655   70.677879
H   41.364426   75.233582   45.140022
H   33.366276   84.842865   75.040100
H   30.004230   34.003620   98.301094
H   70.851852   27.525223   61.241592
H   56.438457   33.756851   99.183601
H   73.972336   23.779640   95.801758
H    4.043811   87.464958   22.993397
H   43.260273    9.825523   92.713715
H   86.258362   17.901161   29.391293
H   86.184746   43.619141   86.411232
H   90.385429   46.398132   96.279510
H   44.044296   85.211609   32.046062
H   98.229538    8.613836   65.750931
H   32.527348   82.005562   10.456209
H   48.535881   24.918613   17.556164
H   84.217339   96.242981   25.358955
H   13.076026   14.257132   57.605843
H   94.802284    5.250354   23.809887
H   66.636101   93.251694   26.719131
H   27.085936   52.959526   77.898888
H   98.965385   62.068459   25.951885
H   80.254219   63.175800   42.648685
H   72.389687   56.992592   66.553131
H   88.543991   77.213348   47.002300
H   22.916557   30.688955   44.374752
H   42.656021   81.987885   26.481373
H    5.895834   35.599693   93.885132
H    3.682541   41.815086   17.440121
H   66.657944   27.833420   29.494846
H   63.984161   33.953388   66.190666
H   48.167065   13.527069   81.708672
H   41.864841   33.952000   83.929604
H   13.764449   46.438911   45.149357
H    5.342003    3.514619   56.963123
H    7.081568    7.020682   20.267542
H   40.235405   42.571354   59.267677
H   16.746376    5.972805   99.836937
H   83.809158   67.839188    2.743333
H   20.965340   68.567703   75.127930
H   53.606327   69.467926   84.878296
H    6.562288   31.086819   23.013283
H   70.855255   15.757809   86.461639
H   65.518188   45.954010    0.597257
H   16.072638   32.369667    1.260975
H   15.948721    6.901661   56.983337
H   33.030624   86.659126   97.708748
H   36.821598   55.938400   57.446785
H   76.546783   74.677895   12.169229
H   54.055664   75.794487    4.542407
H   24.361744   39.345955    7.219147
H    7.455916   39.302834   78.110420
H   92.151848   15.887226    1.730283
H    1.756488   48.555733   74.944466
H   66.770630   81.565590   22.846201
H   20.547026   47.970856   96.399925
H   31.167595   52.915928   32.861671
H   70.708183   82.992104   38.706154
