100
TIME:    5.148, STEP:  5148
H   69.184242   49.923470   94.432877
H   58.299812   83.826447    2.702940
H   68.245972   44.271362   62.918186
H   82.340683   20.552948   57.984886
H   49.060883   85.392410   26.120899
H   48.192181   95.630882   88.569878
H   83.163185    8.954464   93.033310
H   15.263649   33.969250   35.521748
H   27.080269   91.334091   76.039391
H   34.158012   90.301018    9.278440
H   21.400604   73.383560   43.867916
H   59.358162   81.733391   26.488432
H   15.562454   50.280891   13.490723
H    0.183169   89.208290   49.005875
H   43.118843   10.187514    3.311785
H   94.533264   61.466141    5.711830
H   10.135611   22.471348   42.031097
H   11.154353   44.333370   21.069513
H   25.450264   94.317047   34.578480
H   53.819038   96.491737   66.832405
H   58.787102   43.718079   17.519089
H   55.924118   50.918030   80.878540
H   17.010811   52.753868   85.059402
H   40.734615   98.413300   24.737503
H   45.461578   77.897873   74.558998
H   23.078833   74.471008    6.323669
H   18.160700   28.480209    2.109266
H   98.169044   96.730957   36.938316
H   23.109673   16.158964   13.823650
H   98.391159   63.426689   92.640205
H   18.660908   83.686508    2.085564
H   90.805183   10.279908   22.687874
H   32.975147   91.830544   61.569450
H   95.616211    1.939327   54.873802
H   52.806290   69.770737   38.205109
H   20.144415   88.641838    3.241802
H   73.558594   16.004665   14.107450
H   51.214558   64.745918   85.721626
H   27.773479   69.251091   45.432587
H   78.308922   30.244503   43.068485
H   83.422653   32.823410   63.630352
H   68.947563   42.903122   44.654896
H   55.583576   94.370972   73.318581
H   50.625576   99.051758   84.080124
H   10.105211   28.778114   96.638329
H   11.670834   61.107044    4.075011
H   81.953415    4.803097   74.882225
H   56.514347   48.392700   87.107018
H   15.512665    6.093174   39.118317
H   33.846737    9.087202   23.606560
H   43.151859   72.637222    7.695099
H   55.315376   86.043579   36.105583
H   15.656178   51.858582    3.880673
H   57.473183   23.208443   58.983238
H   30.903999    9.750697   44.134190
H    0.007490    7.118526   17.376740
H   22.613098   41.003502   45.605141
H   42.724503   90.722328   80.954208
H   96.289238   56.284821   16.267864
H   19.304485   23.480274   17.189217
H   84.440186   39.166088   13.017955
H   16.203749   80.025223   62.425575
H   23.557661   55.992966   80.456635
H   96.543129   69.806488   87.371002
H   36.655174   49.682377   74.979759
H   85.096306   86.350822   50.573265
H   74.534698   26.342861   15.607605
H   24.758354   11.956645   12.306769
H   13.476780   79.883888   37.359306
H   34.684586    7.070990   90.892914
H   58.560539   45.130402    0.392556
H   49.490509   80.672760   33.533951
H   71.332031   63.663239   29.753471
H   16.882168   23.602432   97.277428
H   10.377719   35.979336   91.650970
H   47.361671   37.511185   49.533794
H   34.359745   80.352242   82.093422
H   73.842728   14.104877   98.743416
H    8.379355   38.397427   75.120995
H   47.057587   28.581940   77.416473
H   11.610193   82.540085   87.673164
H   27.586166   77.847916   56.305077
H   43.497826   93.212097   20.212881
H    4.324560   52.684738   93.227142
H    1.663716   26.874260   48.711494
H   32.810276   98.148109   99.275803
H   10.978018   29.051392   69.020020
H   38.820206   93.133698   42.206551
H   62.519150    7.540197   86.086800
H   11.185918   97.471359    8.246933
H   34.700066   51.408001   42.178143
H   59.198765   82.658310   31.617788
H   15.450030   81.987190   17.107319
H   44.801971   25.496527   73.920906
H   67.585304   88.602898   34.380650
H   19.125320   92.443268    1.547859
H   53.978172   63.113842   41.122971
H   25.761724   60.069824   73.654732
H   63.474243   59.041302   13.837555
H   58.971745   46.526936    1.816897
