200
TIME:    0.740, STEP:   740
H   24.835051   60.815601   23.889267
H   32.420715   40.177589   10.195510
H    7.658137   91.023071   69.975883
H   34.696640   82.817879   31.424820
H    9.901515   96.401672   46.469704
H   73.352722   39.244209   50.750114
H   10.603332   54.949364   59.329250
H   14.093347   10.476668    7.324676
H    7.733655   80.010345   35.521923
H   93.260269   67.895103   76.350471
H   29.621225    5.275067    8.762138
H   32.845367   55.368561   36.566261
H   23.446056    3.602176   40.799126
H   80.771278   55.316463   66.359428
H   95.481949   75.793617   41.748352
H   14.726379    5.365093   43.536949
H    7.728227   31.135971   91.155922
H   24.689522    7.203870   34.618771
H   81.661316   11.600340   49.844292
H   91.646980   72.838219   18.088245
H   64.085594    1.717767    2.933483
H   78.897743   67.926003   51.306656
H   80.032524   58.906052   37.138985
H   19.198784   92.617744   90.018242
H   24.979019   32.813225   27.569012
H   18.247198   84.526230   90.442726
H    8.578567   68.829414   69.185318
H    5.985421   90.755501    2.046917
H   32.127628   41.331978   35.410583
H   70.454971   34.158855   81.330063
H   12.708702   72.338539   16.806118
H   22.833721   75.225082    5.913460
H   15.042152   19.744249   79.286484
H   79.878395   64.123421   47.029770
H   23.993673   69.140610   30.415438
H   16.728630   38.521729   85.209969
H    0.615333   63.637222   89.708595
H    8.183084   57.689045   92.686768
H   34.565155   28.496521   55.545753
H   85.287674   37.632366   44.165131
H   80.653084   81.866592   18.120445
H   38.226395   32.622192   25.004868
H   67.699173   76.295876   68.894417
H   36.167374   87.518257   36.630436
H   45.860947   91.550125   62.407433
H   34.023582    0.826064   48.125729
H   89.396454    1.715886    7.141353
H   77.943123   65.542976   29.672806
H    6.417147    9.778015   61.526821
H   44.224560   20.057898   84.559601
H   66.314011   64.167534    8.053479
H    2.024925   44.303936   74.291542
H   65.662560   80.122978   14.462488
H   14.965006   92.735153   89.107491
H   56.034958   65.265091   74.602852
H   98.896172   60.031784   95.020905
H    4.003549   18.637550   44.291126
H   72.871323   70.202774   96.278557
H   17.630663   84.136276   19.219425
H   31.539036   93.181557   57.751221
H   48.800179    5.621271   27.627834
H   98.922966   17.609346   52.899300
H   85.222183   35.563995   68.016327
H   36.240898   65.865685   14.831123
H   79.385941   83.532990   38.375721
H   19.125807   35.986320   41.850723
H   67.498390   12.615149   96.165321
H   94.541435   92.586708   97.170692
H   34.307434   12.610030   55.651222
H   42.358776   50.344662   50.955891
H   58.245819   85.240051   86.655670
H   18.088108   10.679440   41.264843
H   93.362930   34.307201   82.753052
H   24.154837   97.974388   75.129066
H   85.233292    8.965415   44.102737
H   65.951851    1.424396   59.610184
H   93.314240   48.564011   65.073128
H    8.036045   15.074667   30.870064
H   15.332453   51.968895   23.862104
H   60.741238   87.878403   70.549469
H   64.589256   21.651541   93.710480
H   48.622234   59.598072   72.400078
H    9.048972   19.150881   75.650352
H    8.369097   78.209389   10.147527
H   21.103119    4.611146   43.612503
H   38.753479   68.280121   17.374420
H   58.264656    3.825998    2.917628
H   71.173470   99.934906   30.301098
H   80.989944   73.274185   78.971436
H   20.939781    8.459040   49.364712
H   20.283501   39.209126   78.530518
H   80.572609   92.922363    9.277714
H   71.012466   11.223022   81.489563
H   37.606983   76.470238   82.833763
H   37.794029   50.162743   88.764214
H   48.565895   38.888268    5.552818
H   86.088127   96.984825   19.862907
H   93.149864   36.207779   53.327610
H   25.688255   64.769333   54.653175
H   75.898125    6.051791   27.372477
H   32.174465   94.250854   92.484108
H    9.164441   84.221115   63.106575
H   33.543930   18.896868   37.489666
H   45.901268   68.862640   10.018367
H   24.675936   20.901917   41.298092
H    7.217995    2.293016   20.481409
H   89.343758   36.305202   53.932266
H   61.804829   53.471840   99.407478
H   85.503319   33.778236   23.310139
H   20.428514   21.089029    7.984393
H   53.772987   91.721840    1.147637
H    6.070301   75.918640   96.206505
H   48.409882   86.076813   83.059669
H   61.530449    8.617966   62.060593
H   47.164772    2.789107    9.241080
H   93.633369   91.171028    1.490734
H   12.017444   15.483211   90.008957
H   38.234341   51.606998   23.984001
H   37.850655   76.485733   58.828449
H   83.977669   56.654110   67.995132
H   45.773079   25.082035   71.135704
H   96.715454   15.635395   62.895729
H   44.290840    0.734590   38.862087
H   96.710815   49.326454   95.969353
H   61.955132   96.572594   76.276421
H   66.040520   76.032166   15.877334
H   82.958351   51.524521   51.744766
H   64.491936   91.491478   39.225445
H   98.620827   34.384838   73.495766
H   91.979965   21.779465   75.019829
H   68.792519   67.332916   22.519161
H   62.508263   91.010483   21.118214
H   90.805061    6.920786    1.094843
H   76.403503   25.822430   55.860790
H   29.126438   92.329315   33.440964
H   49.040970    0.985147   76.315422
H   69.720505   87.838631   80.229561
H   95.483177   48.609303   75.298134
H   59.382385   51.325974   71.431831
H   43.718788   85.110191   81.564362
H   75.371231   48.364914   31.061340
H   34.220413   56.202858   57.902699
H   38.932274   65.963539   82.519470
H   34.802010    8.428516   86.409950
H   63.804287   53.184586   65.418335
H   64.260246   70.589767    5.899385
H   56.556816   94.588158   43.701801
H   28.999641   54.806786   65.956322
H   78.551971   43.916420   92.973907
H   25.400543   94.133629   71.285843
H   58.596909   69.801468   47.569553
H   54.834961   93.274376   32.483459
H   99.403442   13.142757   85.912827
H   23.127083   12.619596   63.596653
H   33.439426   67.084061   69.798546
H   78.345085   44.768681   69.444397
H   64.545029   75.878769   86.676193
H   53.154755   28.637589   21.438114
H   89.497612   99.850327   84.061867
H   58.073978   36.542816   97.429001
H   58.867371   64.096123   70.121666
H   20.127977   20.465168   31.212387
H   86.741875   12.770016   37.024151
H   29.628019   34.868153   49.807236
H   54.166740   39.054230   14.737398
H   20.528236   48.530102   59.568592
H   66.290062   89.479805   57.522221
H   24.068996   53.681511   68.688370
H    0.867112   26.544195   35.676285
H   49.290565    6.686502   84.772858
H   69.812988   11.579978   35.934113
H   28.889818   46.875404   58.993530
H   47.333664   55.969151   76.355423
H   65.069016   62.578804   85.839767
H   48.198730   91.275253   75.721443
H   16.343987   50.362358   23.768723
H   30.281254   68.540985    7.823257
H    6.161427    9.677696   71.273636
H   62.814526    9.755925   63.287144
H   62.516014   59.818565   93.438377
H   72.289246    3.107234   30.094166
H   29.312773   30.716396   87.869492
H   42.613003   89.639709   15.972885
H   62.369690   26.145550   95.584755
H   91.988876   66.647827   76.336899
H    9.727695   40.442825   86.456642
H   48.762268   95.960243   10.343962
H   66.399902   88.403755   43.022301
H   92.138222   63.403095   72.257828
H   58.705902   55.553432   72.020157
H   71.705383   14.481911   75.730904
H   43.554024   98.517151   18.255751
H   15.206569   29.419205   69.260719
H   26.368525   83.485809   43.389805
H   67.736099   31.922195   20.180733
H   76.548843   11.610348   22.716129
H   12.784835   99.193138   20.343000
H   14.378302   87.468895   32.865685
H    5.245696   13.010935   55.655312
H    2.792779   18.052792   90.802231
