100
TIME:    5.310, STEP:  5310
H   58.228676   35.067207   94.284561
H   53.825630   92.604248   12.917617
H   71.031830   55.926483   61.016041
H   82.367874   13.878136   49.104500
H   47.609863   98.377426   21.728909
H   45.679470   95.455376    4.612923
H   74.672127   19.893764    5.701969
H    2.530769   47.983822   20.646946
H   23.098000   75.758499   65.842705
H   29.731115   92.627098   15.622633
H    6.331757   79.902023   28.263748
H   53.174644   89.853661   14.957525
H    5.224869   40.484657   97.393486
H   92.161781   88.708961   61.334595
H   45.088966   95.717178   95.524872
H   88.019745   47.297073   92.264374
H   97.108406   33.185902   56.778595
H   14.618445   36.451641   15.453920
H   27.973480    1.112543   43.112797
H   49.454857   93.050819   77.862129
H   49.173790   27.590012   13.122154
H   71.455215   51.133087   67.082733
H   14.847713   51.436333   80.424545
H   25.682095    0.351289   12.705947
H   39.667389   65.051285   75.755409
H   22.340345   69.682892   91.089508
H    4.191240   21.746071    5.323848
H   84.499306    4.292534   42.293739
H   26.632164   30.856405    6.166211
H    4.602828   59.417229    5.518712
H   25.036617   98.214005   89.268639
H    1.033985    5.804257    7.690715
H   44.386784   79.977669   76.163689
H    2.461087   87.092979   48.048820
H   48.779526   57.524826   48.069321
H   34.226444    1.330269    2.732277
H   89.097107   10.071430   26.872417
H   44.519352   61.781155   97.154274
H   20.934902   65.721184   29.733488
H   63.049816   15.078613   55.814960
H   72.350906   38.381531   67.446999
H   54.387932   50.174286   52.264713
H   56.978977   95.342438   85.020668
H   40.281811    1.770924   99.920212
H   96.052773   22.386955   10.501342
H    9.580511   64.196945    4.733619
H   83.219040   13.613595   76.437065
H   56.522999   50.061249   97.130669
H   20.247635   92.676086   32.655472
H   37.244396   11.552946   12.276497
H   43.139500   56.997360    9.402890
H   63.188454   71.011810   25.470131
H   19.016727   52.797913   94.472252
H   53.722038   20.564720   66.132042
H   18.004883   23.947710   45.512287
H    0.209296    6.948118   11.861877
H   32.882706   36.329094   61.012642
H   30.661583   75.423592   76.781601
H    9.065756   63.129593    3.830999
H    8.614437   35.932590   12.581551
H   94.659119   31.632870    0.387355
H   10.454672   78.517349   55.095085
H   34.556011   44.938522   69.347809
H    7.667315   70.688965   82.973450
H   43.085884   36.743092   90.065910
H   75.144341   78.297295   60.151970
H   61.537323   31.943623   23.429390
H   13.567887   21.222033   20.051306
H   21.551222   68.243599   27.198463
H   37.966064   15.219360   90.551788
H   53.416466   34.108093   98.449532
H   36.133469   75.296326   45.395477
H   60.769501   55.650497   25.599403
H   13.316418   13.349510   87.651756
H   18.188158   36.210461    3.931639
H   51.191917   47.894501   38.633846
H   49.068928   66.311714   84.958382
H   81.453781    3.512004    7.690202
H   16.147678   37.921581   76.927971
H   39.113899   19.757416   63.459991
H   14.780127   84.216049   97.355690
H   39.741852   78.905899   42.758934
H   53.745186   95.921326   35.641392
H   15.469847   66.547287   78.430206
H   93.775719   16.740608   33.007362
H   29.081379    4.098456   10.525790
H   21.797628   17.272675   76.744781
H   41.428085   80.163513   40.521935
H   65.880966   98.520439   84.761848
H   96.862885   90.807053   14.037724
H   41.329765   60.154903   45.599285
H   71.185127   94.842422   34.703987
H   25.834566   86.846992   29.635029
H   60.458237   35.324657   84.844337
H   64.784615   74.092705   38.103367
H   32.505844   86.045929   93.180344
H   41.119225   72.410744   31.806290
H   26.356222   61.449158   71.061684
H   55.756897   59.739620    0.267949
H   69.034332   42.370396   86.211533
