100
TIME:    2.234, STEP:  2234
H   66.246002   17.152023   97.100723
H   39.127510   25.868284   18.919943
H   18.155264   34.626419   97.111794
H   81.851578   40.610069   17.709633
H   75.161316   51.822468    5.132433
H   93.375496   98.787834   99.985802
H   35.886639   12.187271   65.154564
H   44.298302   81.871155    3.074846
H   98.711952   71.503372   59.465900
H   13.791307   48.460289   95.169579
H   92.453796   56.132313   24.559622
H   70.576599   35.669388   33.909950
H    1.158316   26.547447    3.087962
H   44.466728   98.190041   27.248402
H    7.673342   70.477386   43.386360
H   11.700054   16.335457   47.600357
H   44.457184   29.734993   76.753479
H   48.884216   86.061104   22.096855
H   80.059105   72.073746   81.057953
H   32.330612   58.370541   68.433754
H   31.707901   33.815739   96.609711
H   76.556107   47.049652   29.032516
H   55.916908   76.453239   68.432816
H   11.478752   63.475040   41.158142
H   49.682854    8.997978   53.044708
H   36.415501   61.040447   79.778816
H   69.439369   49.613400   44.297642
H   44.043266   60.715282   40.616055
H   59.746994   51.777779   51.569542
H   86.655281   35.548691   60.985104
H    3.981437   22.380354   32.635532
H    6.813346   90.789970   92.451515
H   27.717216    5.032611   99.053314
H   72.492912   68.990005   77.636459
H   25.241219   90.046753   60.762024
H   66.792130   59.977688   12.960183
H   94.068878   22.722521   84.495850
H   71.654381   18.065533   80.088295
H   50.776352   32.740234   27.820730
H   52.775059    3.043164   13.800249
H   82.571770   32.837666   94.976608
H   30.842010   12.120008    7.756875
H   30.483587   76.896576   62.836327
H   36.702675   50.213356   99.163010
H   62.871555   43.747768   47.280739
H   49.265881    5.526905   92.241249
H   59.183094   46.330597   46.900719
H   56.358723   18.384470    6.805156
H   30.332014   47.428921   55.360512
H   72.740746   64.751930   27.415821
H   43.374180   53.965385   76.971786
H   13.701132   56.441303   27.403873
H   55.221634   34.962219   73.123466
H   24.959332   70.759651   30.395922
H   62.912674   54.350048   19.362501
H   96.361465   10.184122   16.576172
H   37.877331   25.086128   68.459419
H   59.708588   65.913864   56.013260
H   66.466591   33.161358   39.977928
H   11.598555   99.499603    0.070313
H    0.622654   74.679512   40.215214
H   19.623463    7.149782   94.272186
H   25.763241   54.811409   80.297043
H   96.443787   53.946899   66.490639
H   20.992661   82.418457    3.608880
H   64.107094   31.214180   78.276863
H    8.330278   25.598524   74.919632
H   26.048271   45.302429   73.000717
H   68.246025   89.265343   20.119362
H   75.643372   60.508331   97.028961
H   51.093239   43.398598   35.353039
H   89.763733   77.382904   20.184317
H   61.330750    7.804760    4.464634
H   81.026726    8.006997   70.435295
H   69.880272   31.822416   70.750229
H   78.472527   50.751831   45.609348
H   69.788483   32.918388   30.559202
H   36.937710    4.644377   37.815792
H   68.639435   46.956768   42.603104
H   89.965706   87.285828   28.459999
H   54.599773   52.393414   13.509907
H    8.942165   58.817276   99.971291
H   59.148174   44.545105   42.677280
H    3.848397    3.327853   59.378632
H   43.552612    9.145405   31.191101
H   99.872498   91.112984   96.918861
H   16.358541   40.922928   30.069151
H   91.918152   26.434937   72.515083
H    2.043445   69.786674    9.922758
H   68.823685   17.361694    4.078973
H   15.447144   94.061508   80.639725
H   43.582355   63.521732   76.089073
H   28.621269   94.571762   91.743240
H   63.153355   48.741940   77.445076
H   17.966694   49.622124   67.421684
H   78.440811    7.513546   52.059998
H   85.278152   95.885353    8.709993
H   15.067622   35.258850   20.290863
H    2.290947   46.480190   57.917931
H   77.980270   21.320904   82.519440
