100
TIME:    9.526, STEP:  9526
H   73.117584   48.441902   90.424698
H   37.390640   21.063526   78.750359
H   43.514057   59.242393   11.519222
H   83.075516   40.180046   18.009657
H    9.838099   36.307892    7.417467
H   80.298584   90.887871   22.137222
H   53.711300    4.578235   35.398785
H   71.161484   12.722527   33.548103
H   19.460609   70.405869    0.459013
H   14.569014   53.164249   80.702156
H   14.169708   49.540283   22.154711
H   92.259285    1.179920   14.858044
H   36.308334   85.392418   78.439590
H   83.411240   75.714088   82.173012
H   96.308784   19.123543   92.795677
H   18.503235   78.550095   42.299866
H   58.082771   12.042381   40.577713
H    4.774870   31.303612   69.306717
H   93.638824   77.981354   65.226593
H   35.868183    3.518606   64.906975
H   98.989883    7.874060   98.691467
H   75.647247   56.729889    8.051346
H   58.556374   17.154848   59.800613
H   33.954868   50.786835   99.590073
H   88.880600   30.701096    6.888275
H    2.689294   45.277023   94.442696
H   40.641388   46.493076   88.975876
H   28.765738    1.081187   81.651817
H   18.305050   13.365417    6.873428
H   66.262169   55.071030   40.677895
H   90.963326   76.270126   55.712296
H   67.234787   89.318970   17.394508
H   41.356354   71.514984   55.974266
H   80.598007    0.721723   70.436287
H   43.880013   38.418098    4.621533
H    0.716752   31.550295   89.478706
H   93.466522   55.672615   59.076862
H   70.263084   84.624031   94.665199
H   42.977207   73.862022   21.172134
H   65.949783   20.390404   87.520645
H   84.217148   83.042328   66.772911
H   97.414345   78.959381   66.278496
H   93.267914   20.632816   89.545830
H   71.083168   72.542885   12.135737
H   30.346300   56.058239   71.279617
H   55.164978   44.604687   21.861769
H   16.167675   42.896694   16.911161
H   56.769039   93.484711   57.992069
H   43.483414   43.506504   64.480286
H   25.734037   75.731133   17.474651
H   44.323933   50.081467   51.580368
H   68.092636   79.797348   48.713570
H    6.460886   77.243713   49.618042
H   56.087814   51.781349   52.171944
H   82.320351   93.417664   81.361267
H    5.460381    2.513296   68.339264
H    0.160007   14.677990   61.989326
H   16.730459   77.273811   68.187157
H   41.574902   41.278015   80.174706
H   30.401142   59.989315   92.668495
H   60.611530   35.568264   71.679253
H   60.821556   39.275406   64.336021
H   20.780403   57.245995   80.244049
H   97.172852   93.655151   68.511368
H   10.425429    0.016405   82.683327
H   16.152420   68.707939    9.436107
H   23.279873   77.699463   26.977947
H   22.339951   62.339607   21.600494
H   31.676600   65.308731   62.780186
H   23.493088   27.110880   81.639130
H   19.531273   47.249134   47.885323
H   88.824257   35.300194   54.296879
H   85.879089   47.114597   17.501720
H   20.506313   46.519115   37.150490
H   21.347593   42.341770   23.569189
H   50.860222   18.099609   54.949471
H   31.947208    1.299964   59.690796
H   79.520836   27.846703   40.535858
H   18.320517   25.537853   23.967661
H   32.360802   90.092476    0.247926
H   97.302895   27.833200   49.339470
H   56.118408    6.254278   90.058693
H   20.413656   66.426674   37.151356
H    5.523149   27.319935   93.364891
H   88.494614   53.010605   24.314970
H   32.050243   58.961777    3.297467
H    3.374864   10.734229   77.779579
H    9.232618   42.796913   96.810608
H   53.376713   63.779778   50.280403
H   24.112238   17.350006   64.745636
H   13.866407   87.806564   34.633812
H   83.126434   11.925886   15.036027
H   96.088593   13.341406   55.664787
H   66.438332   90.991562   71.389412
H   91.890884   96.447914   34.981941
H   80.730118   19.560835   75.418549
H    6.473556   14.356174   89.338821
H   19.889925   57.805553   87.641685
H   54.916313   77.937767   47.135784
H   30.907967   34.182560   80.070404
