100
TIME:    2.482, STEP:  2482
H   49.474518   94.409355   96.873672
H   32.228951   39.314934   34.563740
H   22.418142   52.468826   94.201759
H   81.893204   30.392633    4.115567
H   72.940002   71.700760   98.408310
H   89.530769   98.519157   24.546373
H   22.889210   28.934052   84.548485
H   24.805992    3.327218   80.305244
H   92.615639   47.659256   43.854267
H    7.014788   52.021202    4.880648
H   69.385437   66.111191    0.671055
H   61.111786   48.100418   16.257597
H   85.382164   11.543034   78.437981
H   32.187065   97.425636   46.121998
H   10.690254   48.324799   31.464346
H    1.727918   94.644196   27.014189
H   24.518341   46.135628   99.333679
H   54.183960   74.000923   13.498253
H   83.922752   82.476456   94.124725
H   25.649643   53.104855   85.318764
H   16.991226    9.125858   89.877655
H    0.332108   47.378876    7.913011
H   52.605751   74.436272   61.337479
H   88.436798   66.449402   22.738647
H   40.812737   89.328674   54.874359
H   35.278355   53.651836   56.533211
H   48.053558   39.303402   49.218967
H   23.118242   72.291084   48.814480
H   65.139450   74.278511   39.846153
H   96.164925   29.410751   80.700676
H   13.738095   44.620388   13.011826
H   22.472023   83.936821   69.492897
H   45.186649   86.887672   21.395117
H   82.971306   46.262222   67.188339
H   19.075844   71.299927   75.864281
H   88.354385   79.459038   12.107797
H   17.855442   13.639544    4.037274
H   61.403519   13.526409   97.590126
H   40.307419   27.337244    3.788311
H   29.417105   79.827034   33.312489
H   65.622429   41.346394    0.819552
H    8.553192   23.251007   19.407747
H   32.619755   78.383759   80.750511
H   20.866549   54.370277   23.411119
H   41.360386   33.963772   68.502419
H   46.066357   10.257130   93.247841
H   61.122486   59.817413   49.282860
H   56.371967   20.937845   22.149986
H   37.580612   26.890285   45.466774
H   77.940208   68.524757   10.071033
H   43.355259   30.022802   79.586655
H   25.752798   33.427814   11.122440
H   60.366226   36.400208   58.720184
H   19.216839   66.714363   41.339630
H   43.168716   76.091003   21.466505
H   96.671768    9.923487    8.133667
H   53.598705   17.930244   92.046211
H   41.241791   42.493576   49.625565
H   86.027016   43.639751   20.938379
H   95.233078   18.562353   93.016609
H   16.266939   63.145473   20.879948
H   10.822407    4.840960   83.052094
H   42.585461   37.899910   63.283371
H   13.473433   55.295959   59.757389
H   30.836258   62.611927   26.704676
H   48.871986   18.885323   92.940559
H   88.432686   34.172291   86.892776
H    8.917093   59.485535   84.856552
H   80.605156   71.445641    4.564839
H   80.668762   72.981514   96.506744
H   43.218361   26.524633   32.376781
H   69.314026   69.152313   38.342087
H   45.160950   95.537651   98.105949
H   75.569939   92.313400   55.695915
H   81.838280   32.175762   89.550034
H   84.334221   66.646965   28.922832
H   92.304352   11.423262   34.945377
H   48.589199   88.428856   51.512630
H   80.533112   46.228313   45.371231
H   77.803352   73.780090    7.094707
H   59.452984   54.959087   28.331673
H   27.550690   60.436905   79.233986
H   74.837967   48.684998   66.298126
H   20.909092   24.549532   36.726532
H   31.477253   93.633179    7.150382
H   94.165955    0.221529   14.140967
H   32.921898   22.891312   41.894714
H   95.910461    6.579571   69.934273
H    7.190639   55.978203    7.893952
H   46.896671    7.157654   12.943992
H   25.596313    7.453097   85.877029
H   61.933735   82.170219   80.815514
H   44.533543    2.003529   10.929302
H   87.122414   63.785946   94.167366
H   13.678272   27.407097   73.120659
H   98.924576   97.720467   39.250549
H   65.592850   10.117349   94.447227
H   15.978190   37.370422   16.322205
H   90.476830   47.549221   37.144676
H   93.381882   14.951105   58.633698
