100
TIME:    8.136, STEP:  8136
H   67.117668   75.911217   91.697281
H   75.780228   45.742718   91.105911
H   19.621309   59.240250   27.835526
H   82.842209   97.446281   94.200386
H   22.293505   24.893528   45.104279
H    1.848368   92.393761   84.481575
H   26.562809   10.718738   26.698963
H   80.412735   92.469688   61.174255
H   53.629463    4.049427   87.954971
H   52.536842   33.205906   26.277466
H   43.464127   93.612381   56.048149
H   45.313843   31.506054   13.799812
H   24.944130   69.523788   16.574026
H   52.234917   79.998451   76.393761
H   79.425850   43.285202   59.639397
H   74.392120    0.124535   57.681915
H   69.858284   20.104450   14.040532
H   75.048935   98.941399   17.492565
H   71.983704   19.667782   91.998596
H   73.316574   33.037045   70.269325
H   81.474953   46.253277   36.418911
H   42.386585   54.884644   26.422699
H   77.114876   28.454325   99.568832
H   63.107193   34.158417    2.823203
H   38.593575   40.935143   96.626137
H    9.245480   86.254196   25.248268
H   60.503517    4.272090   61.402248
H   46.049347   36.200672   35.705040
H   88.080070   87.253769   72.579124
H   12.963892   89.473190   30.176815
H   36.258091   51.626030   65.684654
H   79.469353   27.722942   46.073784
H   43.446033   73.213997   30.752089
H   21.867386   28.106758   28.993834
H   78.473061   43.660637   20.052412
H   79.886429   22.675688   93.847908
H   60.146450    6.576574   49.550259
H   27.716942   10.057730   96.577065
H    1.647339    4.148790   55.873375
H   96.873459   50.518707   78.158691
H   79.213791   35.348045   34.025112
H   14.556294   73.508484   95.318077
H   81.305634   12.293274   89.145363
H   59.831684   49.205475   76.229767
H   50.917496   10.888859   52.329948
H   73.103172   18.095322   16.214682
H    5.300394   67.301460    3.562680
H   56.684200   79.168152   71.987129
H    2.856034   58.625626   19.925114
H   96.557373   54.568562   14.662950
H   42.942936   84.164986   39.192749
H    0.537675    8.778074   39.959259
H   77.635170   69.184021   30.345999
H   88.281555   74.460251   90.836197
H   92.994087   71.605743   69.547455
H    3.729137    3.975441   15.658157
H   12.039783   54.785652   29.788857
H   20.232462    8.542242    3.989524
H   31.943359   82.543571   86.885559
H   22.127182   53.149021   32.203392
H   72.925644    0.210785   80.049110
H   10.155403   52.213333   27.225769
H   26.413204   52.097198   75.560516
H    1.723805   86.083282    6.244982
H   55.256241   11.035057   53.239365
H    1.541668   37.808586   27.248173
H   34.802429   29.645565   59.868389
H   18.356773   82.843559   55.150452
H   62.401062   65.185265   49.957886
H   95.262672   57.293026   84.587280
H   63.677799   41.828400   64.556160
H    3.288086   81.452538   52.410923
H   76.508560   15.872522   53.144650
H   51.101330   34.492573   19.739985
H   54.390198   40.295033   18.178488
H   17.995768   29.013706   48.479248
H    5.704973   21.608757   35.034500
H   14.222829   18.730343   63.762180
H   51.662735   29.620724    8.454042
H    0.528805   65.812981   19.997414
H   70.090828   13.453012   66.260529
H   51.814636   97.233719    6.346767
H   32.494240   43.180820    4.773909
H    9.893620    8.374092   20.319714
H   56.174820   39.964687   59.059044
H   64.045090    7.901885    6.771720
H   10.539903   11.798893   11.499214
H   86.878288   54.024010   11.220322
H   24.530125   41.172356   61.648811
H   47.007442   74.540054   15.059958
H   56.981342   12.752505    5.279440
H   80.280510    7.384611   88.550804
H    6.986830   71.639763   48.173950
H   33.578987    6.774545   75.396782
H   15.924591   20.956032    3.043841
H   65.921829   74.450378   47.214027
H   16.805075   34.586906   69.279839
H   22.572954   89.029015   15.550714
H   21.132561   71.935417   63.563229
H   44.568897   69.848434   13.972976
