100
TIME:    6.965, STEP:  6965
H   46.307449   83.297066   92.769363
H    8.120464   82.287285   17.270397
H   99.492294   74.994102   41.583630
H   82.645660   45.692963   58.388744
H   32.786179   31.032804   76.855789
H   20.009495   93.662392   68.514267
H   87.934479   31.647816   35.125225
H   72.451027   91.163239   68.691490
H   82.414879   16.637177   61.666271
H   84.520638   16.392076   80.425667
H   52.387695   46.494358   68.844643
H   90.005554   72.810135   97.153252
H   99.615608   40.400837   32.944023
H   10.216291   83.607796   87.279442
H   65.202888   47.884697   15.956394
H   21.476311    2.544544   54.885254
H   64.023232   42.650913    7.439782
H   50.010815   55.922104   58.081421
H   53.745457   70.545135   30.305126
H    4.870163   57.900425   90.542229
H   50.963745   62.830505   68.198402
H   30.121674   53.330124   26.144165
H   92.749413   37.976326   33.074615
H   71.909737   20.149874   89.792023
H   80.476265   33.800835   87.978004
H   14.766705   20.772549   35.445236
H   61.480175   52.951477   38.164860
H   44.855019   81.542366   96.997391
H   62.618111   81.011421   27.932215
H   68.062195   18.456383   37.085686
H   90.171745   46.620331   58.330376
H    5.531678   60.073032   54.479118
H   60.963421   58.889687   25.259161
H   72.389519   35.421951   78.327225
H    7.616148   32.321785   48.808517
H   78.093330   30.957851   97.528725
H   47.832817   49.462524   57.280064
H   76.115166   31.489826   13.942779
H   51.078747   29.659887   69.352112
H    7.168652   60.144169   86.026413
H   59.243073   95.170494    6.437631
H   13.241804   68.916397   35.535862
H   71.228058    5.268900    4.564024
H   34.604710   29.549887   61.735519
H   52.493027   57.086864   52.124210
H   88.219536   95.763565   11.457315
H   96.148727    3.617842   92.321388
H   56.612728   67.107224   99.532684
H   68.621529   55.607807   66.639450
H   71.970947   36.745190   96.538795
H   43.023342   97.217346   26.847797
H   43.626682   17.438522   16.827583
H   53.348583   62.394165   98.351875
H   15.400162   93.561188   39.161819
H   86.230972   68.985054   59.591000
H    2.270658    5.207219   55.521759
H   37.802334   88.574120   18.417046
H    7.427707   19.129202   34.154037
H   39.591446   33.061375   76.781273
H   99.401619   63.142414   65.509422
H   99.057701   54.665611   71.348923
H   51.716469   63.112839   80.210312
H   46.914791   32.004433   55.859497
H   21.313351   79.704391   38.040539
H    8.774760    4.560853   44.189396
H   73.476532   96.022667   58.009003
H   28.753889   89.160522    3.331727
H   99.245399   15.873065   99.169876
H    4.035485   49.325851   23.399632
H   71.492638   98.460381   87.066833
H    0.861349   21.503204   78.600441
H   99.700920   20.353943   66.581078
H   52.860382   73.791519   83.166321
H   76.880440    8.605022   89.317352
H   97.982414   38.571644   29.392754
H   90.313408   53.964893   27.273642
H   99.353119   22.961979   14.266714
H   59.208691   95.295708   99.089378
H   95.511177   33.060322   95.388130
H   57.954727   29.603539   20.880089
H   47.167358    1.338091   96.271286
H   63.943558   89.639801    4.312901
H   58.428261   23.597448   93.254303
H   29.330864    8.169033   27.272137
H   13.191740   13.219481   72.573769
H   90.990097   64.892685   25.454102
H   32.331394   96.940224   55.661461
H   68.045372   47.728001   23.361656
H    0.225478    6.372589   71.226082
H   50.539654   22.716511   73.197342
H    9.059254   49.520927   80.549850
H   93.638367   19.313938   66.233620
H   31.923298   36.504200   57.618721
H   20.407257   35.731285   96.438309
H   36.172630   25.847229   76.134827
H   69.202026   20.691492    7.697630
H    9.753658   67.386795   36.626083
H   24.833261   31.087963   39.059250
H   76.916588   66.878761   61.646549
H   71.833107   99.902481   26.779713
