100
TIME:    5.777, STEP:  5777
H   26.647192   92.241905   93.857010
H   40.927834   17.910254   42.364056
H   79.062668   89.524887   55.532696
H   82.446259   94.637054   23.505459
H   43.426987   35.809448    9.067558
H   38.436039   94.949440   50.862446
H   50.196827   51.429234   42.222004
H   65.825485   88.386002   77.769295
H   11.618248   30.858490   36.445213
H   16.971113   99.332527   33.910648
H   62.892563   98.692902   83.279366
H   35.349319   13.261599   81.716133
H   75.424576   12.243649   50.989922
H   69.038383   87.269539   96.871498
H   50.768272   54.002426   73.078430
H   69.243118    6.451467   53.499725
H   59.555153   64.072929   99.291443
H   24.605207   13.729420   99.265663
H   35.246403   20.704927   67.715347
H   36.874161   83.131630    9.657587
H   21.461342   81.098877    0.447052
H   16.226959   51.753036   27.313339
H    8.611699   47.638252   67.063568
H   82.291695    5.937960   78.023529
H   22.965351   28.014755   79.204323
H   20.211496   55.878014   47.174232
H   63.922829    2.332945   14.590260
H   45.095043   26.090523   57.731903
H   36.786507   73.226685   84.090698
H   22.508884   47.859093   42.643173
H   43.417084   40.090267   52.321083
H   30.520420   92.900742   64.458229
H   77.281853   45.809196   18.234739
H   22.193748   44.295097   28.374666
H   37.171509   22.222849   76.506607
H   74.822433   37.908501    1.263611
H   33.888725   92.968384   63.670330
H   25.218975   53.233692   30.108425
H    1.221772   55.545464   84.478294
H   19.064955   71.360573   92.556664
H   40.434204   54.404015   78.449318
H   13.360013   64.257645   74.884483
H   61.001522   98.142899   18.753155
H   10.463507    9.609701   45.580132
H   55.543034    3.962476   50.464092
H    3.554132   73.104263    6.630885
H   86.867477   39.011429   80.919228
H   56.547939   54.871201   26.025915
H   33.897209   53.997871   14.026551
H   47.038883   18.660986   79.612839
H   43.104916   11.911283   14.325965
H   85.884300   27.676682   94.811836
H   28.704327   55.505737   67.351250
H   42.908554   12.943976   86.740013
H   80.821404   64.874634   49.484951
H    0.790986    6.456880   95.964081
H   62.487068   22.854103    5.428186
H   95.888580   31.321650   64.753159
H   45.895905   82.861244   67.980751
H   77.795868   71.828308   99.298973
H   24.118378    9.915297   63.974270
H   93.880898   74.170578   33.963364
H   66.262245   13.070724   37.324219
H   39.735878   73.232895   70.296555
H   61.623795   99.444290   33.556309
H   46.455650   55.081261   87.764656
H   24.069202   48.087254   45.976273
H   81.308769   47.930454   42.376606
H   44.827824   34.687950   97.908356
H   47.425636   38.708496   89.568420
H   38.587563    2.333525   92.848610
H   97.627518   59.797592   79.587265
H   30.320625   32.552040   13.624405
H    3.037352   83.792381   59.903679
H   40.703388   36.876728   39.334244
H   62.233429   77.825005    7.211224
H   91.469017   25.833773   93.217247
H    3.394297   72.977486   33.481949
H   38.540676   36.549854   82.136971
H   16.215557   94.318672   23.227337
H   23.918917   89.047379   25.266531
H   74.791138   81.935501    3.694543
H   83.283089    3.730936   80.116119
H   47.597679    6.509229   35.777203
H   71.037117   87.530144   87.737106
H   18.332027   21.252171   42.955704
H   52.987495   83.317818   99.013077
H   48.939049   42.792408   35.679253
H   75.572128   72.518196   80.942390
H   55.574955   71.595749   30.731714
H   60.441307   85.372757   55.461468
H    5.738397   29.964552   43.600616
H   55.770279    0.856629   65.748856
H    5.592841   63.657055   16.333147
H   56.711021   32.261234   48.834904
H   71.078094   67.604218   69.059326
H    4.051586   99.211082    4.948577
H   27.126383   72.303192   62.905899
H   33.509979   61.752674   61.153847
H   98.043686   30.388031   41.224209
