100
TIME:    2.782, STEP:  2782
H   29.186592   66.897758   96.599014
H   23.883919   55.581566   53.487690
H   27.574850   74.052383   90.681557
H   81.943558   18.031870   87.672302
H   70.252930   95.747086   90.273849
H   84.879890   98.194145   54.257236
H    7.166479   49.192383    8.008964
H    1.226583   29.280359   52.760670
H   85.241066   18.815567   24.969654
H   98.817223   56.328758   16.629076
H   41.480164   78.182419   71.772461
H   49.660828   63.137955   94.903709
H   66.297997   93.392365   48.620438
H   17.332634   96.500954   68.952461
H   14.339775   21.527761   17.043646
H   89.665710   68.405182    2.110768
H    0.395153   65.976990   26.644785
H   60.594940   59.411995    3.096718
H   88.596519   95.060379    9.929979
H   17.567825   46.735073    5.744105
H   99.188904   79.260712   81.734039
H   29.093399   47.777130   82.365295
H   48.600319   71.996391   52.754410
H   60.563568   70.047424    0.457326
H   30.082962   65.534119   57.087646
H   33.902775   44.714001   28.414930
H   22.183479   26.832106   55.172184
H   97.805321   86.294075   58.731930
H   71.662582    1.497102   25.665148
H    7.668099   21.985825    4.549981
H   25.543715   71.522156   89.275963
H   41.414284   75.646721   41.720375
H   66.319061   64.937904   48.421486
H   95.646782   18.768936   54.549484
H   11.618066   48.622314   94.133629
H   14.438375    3.024876   11.076684
H   46.628738    2.652089   27.675901
H   49.004990    8.035534   18.759998
H   27.643387   20.801523   74.715866
H    1.160512   51.742233   56.917072
H   45.121304   51.639210    7.888906
H   81.590843   36.716125   33.501266
H   35.203831   80.182770    2.420881
H    1.710189   59.398811   52.742661
H   15.338076   22.128292   94.173805
H   42.195965   15.979176   94.465492
H   63.468525   76.132111   52.164482
H   56.387989   24.026606   40.712303
H   46.349075    2.045105   33.498543
H   84.229881   73.088661   89.088165
H   43.332371    1.058965   82.749802
H   40.332081    5.589979   91.428246
H   66.588570   38.139709   41.295410
H   12.270275   61.819847   54.578156
H   19.284897    2.389651   24.011671
H   97.047134    9.608202   97.920959
H   72.617531    9.273488   20.578926
H   18.902924   14.161899   41.898514
H    9.687912   56.315228   97.907249
H   75.434799   41.622196   84.483894
H   35.191841   49.195126   97.489883
H    0.175966    2.048029   69.479401
H   62.935345   17.441637   42.702316
H   34.074059   56.927887   51.611485
H   42.744869   38.650288   54.644066
H   30.442421    3.971459   10.678558
H   64.363472   44.542927    1.376512
H   88.193886   76.642517   99.198288
H   95.555717   49.889549   85.750313
H   86.747864   88.069405   95.875031
H   33.692299    6.112084   28.777496
H   44.578278   59.195953   60.307877
H   25.600332   80.696953   90.415520
H   68.968987   73.329941   37.866020
H   96.303612   32.603771   12.292255
H   91.424980   85.873039    8.736805
H   19.542177   85.421768   40.250858
H   62.683743   68.813683   68.080826
H   94.920624   45.347118   48.719772
H   63.090828   57.441586   81.249466
H   65.323288   58.062725   46.262043
H   50.061218   62.396133   54.148537
H   93.816849   53.692932   94.871735
H   41.547367   50.220917    9.324799
H   16.868870   74.869446   78.068779
H   87.262878   11.241085   34.973843
H   52.958214    1.078853   56.199829
H    0.739695   82.560852   66.812325
H   13.416851   39.274406    5.439481
H   20.372059   94.815018   23.668087
H   37.873535   23.652199   92.212479
H   84.130905    4.729192   86.532982
H   63.782505   10.992323   34.138832
H   16.118176   81.982079   14.395024
H    8.490665    0.534157   80.014580
H   23.703415   85.873543   23.755249
H   41.779984   27.333645   77.194115
H   17.079123   39.924744   11.521942
H   76.185448   48.842403   12.015739
H   12.012894    7.245254   29.739565
