100
TIME:    7.765, STEP:  7765
H   92.207268    9.933600   92.036942
H   86.026657   25.637638   67.714615
H   13.244181   32.548584   32.190319
H   82.779938   12.732193   14.536150
H   25.617933   95.156334   55.163895
H    7.602080   92.795692   47.740364
H   46.005947   85.667587   97.686264
H    9.572609   60.372074   95.236794
H   62.749352   39.720367   11.307419
H   62.670052   27.878893   11.749897
H   77.973648   78.684296   91.785477
H   59.474861   12.909752   40.207451
H   48.601494   91.981018   53.441952
H   70.604897   81.141975   48.160709
H   74.919685   76.424759   77.482208
H   89.308884   32.573792   88.477814
H   99.691811   95.565933   80.266937
H   67.117859   16.993881   30.352966
H   66.203812    4.102922   72.451126
H   83.313919   40.914341   45.009895
H    3.490605   83.187073   46.487019
H    6.818451   54.392136   58.016800
H   82.068260   31.470228   10.183911
H   97.577164   29.720186   30.377029
H   51.862984   70.357635   93.886208
H   10.994732   97.191269   60.162277
H   92.494202   19.694551   54.040104
H   77.353111   18.883642   23.441446
H   80.013130   53.593403   90.116936
H   98.738464   98.655350    0.684293
H   21.656515   18.358521   95.036995
H   56.044094   37.972202   80.419136
H   17.312773    0.358527   97.329475
H    6.191075   62.106789   44.623611
H   87.706169   71.750572   97.479858
H   47.635654   93.616592   95.014076
H   24.563869   20.164415   20.316801
H   43.050186   16.847492   70.394890
H   17.307995   12.231298   91.826454
H   31.817566   85.250107   48.969063
H    4.569263   22.619261   25.284513
H   45.822090   72.053604   76.376335
H   78.112823   10.067789   62.346310
H   83.522034   42.977623   39.955883
H   83.099266   25.525585   20.582161
H   77.892387   11.020473   14.707438
H    2.400187   47.125618   99.999611
H   56.661556   75.346970   49.031734
H   92.010201   89.353096   34.724670
H   88.767822   48.921703   40.603622
H   42.968410   19.982985   35.280991
H   82.507324   43.204556   64.312927
H   69.941856   67.032837   51.891914
H   96.874969   80.511871   74.464554
H   22.534229   39.092392   66.394272
H    3.267057    4.365697   28.287872
H   88.519394   65.490623   94.503471
H   47.857590   43.579185   13.546018
H    2.682954   66.868233   15.366871
H   46.608223   24.631680   42.755516
H   49.523022   17.463490    8.976207
H   23.322914   55.666550   44.013092
H    1.225873   77.413239    1.001099
H   76.249138   84.062302   16.318127
H   40.529121   40.666744   18.689672
H   24.331501   56.252159    5.311412
H   64.568024   16.819130   41.956951
H   43.984169   61.626091   37.414505
H   43.909370   91.842964   73.226349
H   87.727867   38.659809   85.374161
H   75.458443   67.071609   69.005714
H   33.838772   93.770897   25.217905
H    0.698071   34.223934   62.657978
H   59.267338   57.971615   41.783173
H   36.518387   39.748745   90.049301
H    9.224578    5.236005   73.442543
H   72.010460   53.720840   28.454336
H   96.794144   42.987774   43.272152
H   33.873009   30.710468    4.313721
H   18.722363   86.022789   51.959480
H   62.827751    9.614846   44.086349
H   23.976208   94.827789   37.384411
H    9.027905   36.976353   69.443207
H   84.368675   76.626953   54.203693
H   74.239105   63.172001   95.023445
H   72.581894   94.275009   81.008301
H   85.761574   38.773720   93.808434
H   80.911583   83.711304   15.066978
H   16.829735   61.829384   64.683113
H   79.808807   89.802139    1.798168
H   41.798512   92.719566   97.444382
H   52.830265   79.481750   81.480202
H   83.205032   60.509327   19.483950
H   97.723610   84.266441   50.380779
H   22.339931   54.188995   94.518616
H   35.278778   89.101074   66.376549
H   46.252922   13.296998   90.616188
H   23.289072   70.670357   22.999189
H   38.806236   70.333351   94.636559
H   21.525751   79.370255   49.713726
