100
TIME:    1.792, STEP:  1792
H   96.137115   57.685776   97.505386
H   51.422523    1.903693   91.039116
H   10.557714    2.828181    2.299312
H   81.777390   58.819908   41.937840
H   79.120270   16.394215   17.116283
H    0.227859   99.266685   56.214146
H   59.050228   82.342232   30.589592
H   79.038628   43.632290   43.658913
H    9.577217   14.000006   87.287041
H   25.868814   42.113823   77.863487
H   33.567551   38.347370   67.134094
H   87.444305   13.514181   65.372505
H   29.273624   53.288933   47.018417
H   66.352257   99.552406   93.611443
H    2.296736    9.958717   64.634445
H   29.472595   54.995483   84.289810
H   79.993347    0.504809   36.512039
H   39.438705    7.555646   37.421188
H   73.173088   53.531525   57.770496
H   44.237823   67.756699   38.340309
H   57.936813   77.818420    8.606743
H   34.176579   46.465172   66.670448
H   61.818245   80.047997   81.078537
H   52.545311   58.173954   73.985413
H   65.491692   44.051918   49.783798
H   38.442188   74.211472   21.208445
H    7.552238   67.987747   35.526569
H   81.337906   40.084209   26.005888
H   50.136246   11.676433   72.463646
H   69.706642   46.488083   25.847153
H   86.593941   82.742676   67.608887
H   78.905212    3.003326   33.369637
H   96.583206   37.370567   59.234467
H   53.817711    9.496603   96.257706
H   36.228859   23.458839   33.848557
H   28.362461   25.254549   14.479356
H   51.674660   38.910011   49.667850
H   89.924919   26.155422   48.897152
H   70.160263   42.254082   70.373016
H   94.407234   44.422421   79.025528
H   12.778442   17.671324   84.563278
H   70.566437   92.283058   86.991348
H   26.676382   74.246033   30.911724
H   64.927925   42.804649   55.945621
H    1.213223   61.185375    9.456190
H   54.968258   97.096443   90.447243
H   55.001942   22.408670   42.935738
H   56.335117   13.833696   79.456749
H   17.413145   84.035912   72.991989
H   63.473766   58.024784   58.328709
H   43.407902   96.637108   72.311417
H   92.221336   97.454529   56.421589
H   46.052643   32.399353   98.792595
H   35.193935   77.969398   10.892847
H   98.098236   15.600901   15.612535
H   95.808426   10.648642   31.622894
H    9.857597   37.839760   26.421667
H   92.621185    7.655095   67.397781
H   31.608002   14.484643   73.911316
H   40.764774   65.528137   12.641057
H   72.741348   95.236397   74.676689
H   35.309570   11.264700   14.271260
H   95.782578   84.952065   10.620067
H   66.094055   51.542526   78.488899
H    3.448726   17.719704   62.447628
H   91.259987   53.187386   52.142376
H   43.793381   10.317748   53.580395
H   56.580101   20.023678   51.870564
H   46.216141   21.024628   47.842155
H   66.686829   38.275467   97.959686
H   65.128304   73.473000   40.655216
H   26.208811   92.051941   87.823631
H   90.149506   29.666683   15.798573
H   90.752129   35.978127   96.704674
H   48.570457   31.193502   37.244122
H   68.025475   22.422613   75.349998
H   29.656607   71.229233   22.740774
H   16.171749   33.545891   13.404580
H   47.449005   48.252781   37.671837
H   11.642454   11.357359   66.538795
H   45.950100   47.820721   87.092613
H   75.779343   55.930679   36.931961
H   31.182583   37.166748    0.579123
H   73.444344   65.505348   99.750519
H   65.073944   36.793800   74.038177
H   10.046032   74.879250   66.225166
H   86.838341   73.059921    8.992668
H   84.802826   61.822723   77.114754
H   92.870796   94.396935   13.538591
H    7.901142   35.547928   88.277473
H   97.358528   70.193130   71.305496
H   10.877007   30.280935   67.665337
H    0.262796   81.325790   57.549210
H   20.431049   21.930273   47.643494
H   25.609768   89.212891   57.264641
H   41.933456   24.966738   74.889740
H   20.361843   70.519722   34.129822
H   13.444755   31.495483   27.364037
H   23.345779   44.574902   94.944046
H   50.530624   32.673489   25.090736
