100
TIME:    1.779, STEP:  1779
H   97.016266   58.877945   97.517288
H   51.784142    1.198842   90.219078
H   10.334257    1.892937    2.451928
H   81.775208   59.355492   42.650463
H   79.236710   15.352208   17.468727
H    0.429456   99.280769   54.926662
H   59.731510   81.464470   29.572975
H   80.060402   42.507664   44.852570
H    9.896782   15.249924   88.105293
H   26.224035   41.927162   77.354485
H   34.776779   37.824284   68.386368
H   87.940414   12.862579   66.297874
H   30.100555   54.075447   48.310463
H   66.995949   99.592476   92.622200
H    2.138597   11.119917   65.259293
H   29.995285   56.132607   85.368912
H   81.038528   99.645096   35.328499
H   39.160896    8.187849   37.871872
H   72.970558   52.986122   57.085644
H   44.588036   68.032822   37.455208
H   58.708252   79.112549    8.959583
H   32.930058   46.448013   67.777321
H   61.991814   80.153725   81.450470
H   53.753151   58.018040   74.950851
H   65.956657   45.082916   49.687889
H   38.501797   74.598877   22.426947
H    8.673244   68.528091   35.268597
H   82.434860   39.477413   25.576181
H   49.853577   10.496984   73.078178
H   69.208153   46.809830   24.813725
H   86.082558   81.576889   68.637604
H   78.084381    3.362477   34.573112
H   95.667557   38.321724   58.063324
H   53.268440   10.687954   96.805389
H   36.551994   24.441536   33.056984
H   27.232132   24.233320   14.524037
H   50.427841   39.386086   48.643497
H   90.462288   26.393360   47.979816
H   70.744644   42.531593   71.618942
H   95.631737   45.639484   78.002762
H   13.666817   17.225252   84.257004
H   71.734802   91.699669   86.380585
H   26.564405   74.168076   29.972717
H   65.758080   42.586746   54.674603
H    2.340868   61.698246    8.343714
H   55.135975   96.848488   90.394478
H   54.864674   21.707354   42.824654
H   56.334423   13.699850   78.652382
H   17.033178   85.112633   73.510513
H   63.201115   57.826916   59.237911
H   43.408894   97.892159   72.174347
H   91.589546   98.660782   57.275051
H   45.782967   32.323975   99.547569
H   35.494953   78.181450   10.319227
H   99.133102   14.461248   15.502220
H   95.792160   10.662304   32.065445
H    9.033468   38.214867   25.185263
H   93.589203    8.882800   67.732620
H   30.582756   13.935348   74.909286
H   41.622601   64.528976   13.010783
H   71.921310   95.841011   75.690331
H   35.770966   11.385727   14.859485
H   94.900848   85.838554   11.511937
H   65.201416   51.471809   78.841789
H    2.932725   18.757992   61.236912
H   92.058601   53.833656   51.373714
H   44.836380    9.868329   52.952770
H   57.478096   19.280159   51.249088
H   45.568184   21.958725   48.657532
H   66.423401   37.621559   97.987061
H   65.541100   74.357506   40.811131
H   27.280722   92.483383   86.871880
H   90.997116   30.309681   16.131924
H   91.038170   36.800842   97.477303
H   47.943726   31.175005   36.258648
H   67.718208   21.589434   76.224785
H   28.476290   72.355942   22.510820
H   15.560985   34.395981   12.686625
H   46.825844   48.290867   37.526833
H   12.280022   12.065371   67.658760
H   45.695698   47.686230   86.315620
H   74.803986   55.845779   38.018997
H   30.360065   36.949738   99.340942
H   72.550117   64.392921    0.937932
H   65.706924   37.606995   75.298386
H   10.345264   74.401787   65.322411
H   85.970100   74.005127    8.372755
H   84.593552   62.863541   77.250038
H   92.601021   95.120766   13.644939
H    9.050539   36.082817   87.812706
H   96.826515   69.491119   71.030960
H    9.915113   29.303247   67.417580
H   99.428688   80.936203   56.543503
H   19.174511   21.141726   46.767021
H   25.834564   90.377289   56.965904
H   40.859711   25.480055   75.561203
H   21.393684   69.773674   34.877457
H   13.397023   31.384796   27.572071
H   23.965023   44.518864   96.033066
H   49.723282   33.007435   26.342861
