200
TIME:    0.517, STEP:   517
H   17.982843   61.555691   20.076105
H   30.433197   36.922047    1.142310
H   12.331980   81.262398   58.991936
H   27.179781   80.211403   37.256214
H   12.269163   90.749771   49.675907
H   80.607300   45.296780   57.350521
H    7.372458   55.107590   55.012913
H    9.096042    0.847832   15.240026
H   98.677795   83.353508   40.962006
H    1.110315   71.018791   85.146477
H   21.848585    0.511518    1.715128
H   31.923233   49.416370   25.940693
H   17.972797   96.200920   49.938805
H   91.311172   54.375614   55.613674
H    6.248287   74.076950   42.297039
H   21.226364   14.553261   48.347530
H   97.238281   20.691778    1.983267
H   29.984564   96.483208   38.588882
H   74.241707   19.673578   46.561527
H   90.937515   75.900658   26.732830
H   61.409363   90.585854   13.149913
H   83.862297   59.402214   59.900200
H   86.710342   60.527443   42.489746
H   14.475398   90.584625   90.717499
H   15.286385   23.844530   35.526249
H   18.431795   74.629448   97.807892
H    4.259982   64.354851   60.219177
H    0.867293   81.556274    1.460137
H   22.735298   48.110176   36.716373
H   80.532097   28.184818   89.044006
H   12.999846   63.021915   16.533476
H   26.888901   69.998520    0.422903
H   20.430344   14.945956   76.562614
H   87.258873   63.880127   43.131966
H   34.695515   78.355148   32.112087
H   24.012981   43.606228   82.652832
H   94.214859   68.450356   88.034462
H   19.213545   51.920601    2.712981
H   42.818428   36.481644   50.588856
H   87.426277   38.549397   52.876068
H   80.586731   92.283989   10.718548
H   27.126757   37.298367   31.617609
H   71.714371   81.418655   60.613918
H   36.664169   76.687431   28.655155
H   38.241428   84.746407   54.360023
H   37.161732    6.629622   45.700447
H   85.194107   12.641288    2.252403
H   83.372147   65.546379   37.689590
H   97.792900   18.240398   61.366043
H   52.204765   19.051546   93.993614
H   71.618835   66.990082   16.890976
H   10.549352   40.465679   69.497124
H   59.647182   86.497955   11.549981
H   18.283991   88.029205   85.805161
H   65.474075   70.224541   81.814896
H    1.754711   65.526077   87.718689
H    4.639962   17.793678   46.683231
H   70.434982   65.018745    0.303924
H   22.336185   79.828445   13.826044
H   36.696693   94.433754   61.873604
H   49.522404    9.972061   34.143459
H   94.914574   17.081076   51.189438
H   79.078590   30.944721   75.539719
H   30.837484   65.547531    9.852108
H   75.801186   80.208542   29.256588
H   27.873749   27.322792   37.842331
H   75.828224   17.319124   91.558052
H   95.790230   92.079704   92.755676
H   26.375416    9.596505   58.473770
H   43.642448   46.457916   50.967800
H   58.343647   81.383080   80.690720
H   24.355474   16.540840   42.825836
H   86.285294   30.451931   90.220299
H   16.889626    2.876041   68.636696
H   82.517929    5.355565   54.588188
H   60.315262    9.297293   61.067394
H   94.256790   40.262249   68.227440
H   16.295492   11.013958   38.495537
H   13.636505   42.034386   28.803425
H   64.102242   89.122093   81.125092
H   55.124622   25.420467   97.021317
H   38.816475   63.609016   79.293968
H    9.919003   16.704758   82.175049
H   15.641113   70.917381    2.879618
H   29.044193    2.253001   49.932186
H   32.471226   76.082535   22.016567
H   48.270046    3.361316    2.406371
H   73.027946    8.234733   21.890024
H   74.164108   72.731453   78.168396
H   22.056721   98.463043   51.818066
H   29.631170   37.284042   79.522408
H   82.125946   90.965805    4.411917
H   60.418419   13.738050   87.840721
H   47.606697   84.481918   76.710587
H   32.143829   53.179245   79.476517
H   57.800850   33.902447   16.037682
H   83.063118    4.698290   10.258885
H   99.279846   32.742970   51.216228
H   30.741280   67.003212   53.862896
H   72.020737    2.428436   27.318033
H   22.224943   88.085144   81.983345
H    0.872671   80.847328   64.336655
H   28.921347   27.046783   34.373634
H   35.186134   68.450912    1.162374
H   24.971546   23.832500   34.068184
H   98.389236   13.211037   30.922199
H   78.780045   33.536247   54.970093
H   63.119125   44.909771    8.030461
H   79.836105   36.593128   12.526951
H   13.264960   24.198256    6.892973
H   50.839001   93.659683    0.990741
H   97.116478   70.310974   93.666382
H   52.283016   83.489052   87.910233
H   62.285851   13.425570   67.810883
H   54.606499   93.503189   17.060266
H    2.733969   97.694023   91.430580
H   21.186138   12.343147   87.409286
H   39.365742   40.630707   28.441551
H   29.382030   68.113365   69.849426
H   78.092682   52.203365   59.675945
H   43.445625   23.600155   78.443024
H    6.337108   20.918102   56.336155
H   38.914558   10.139878   32.246368
H   99.996132   57.350895    5.734948
H   68.627846    2.093676   83.651794
H   57.870617   69.931107   20.183044
H   88.501366   50.483292   60.357025
H   69.369720   89.742485   37.342045
H   95.876541   42.456917   78.577713
H   81.171257   22.836432   71.220703
H   59.790649   75.295258   13.997074
H   71.067780   88.798721   15.859326
H   91.533241   96.071518   99.435661
H   87.338112   20.105026   53.116505
H   18.110165   96.361526   43.688225
H   54.980400    1.271347   79.600739
H   69.351311   87.270378   69.128220
H   93.581062   55.572098   78.821640
H   53.553543   48.207390   71.484573
H   43.597992   95.804909   87.760696
H   64.331139   54.922787   23.857803
H   44.486389   49.427212   52.704208
H   46.100933   61.859428   90.041161
H   45.020348   16.500795   82.714607
H   53.322239   60.580376   58.126331
H   56.089458   66.748108   16.579662
H   51.282616   95.564735   45.298523
H   35.088791   63.107697   67.235741
H   72.590424   53.227085   95.190773
H   18.291857   91.698990   79.630989
H   66.456581   66.014252   49.253044
H   45.447735   99.445190   39.471775
H   89.043892   21.481098   93.740761
H   17.232313    7.500868   69.107407
H   24.596634   61.194374   65.764633
H   71.725113   44.215740   62.583012
H   62.210766   69.190742   84.035690
H   49.984280   32.215538   16.213678
H   99.704041    0.690610   92.332153
H   60.574120   45.641663   88.871185
H   56.676876   73.155838   76.050888
H   30.598541   21.620813   33.144276
H   77.142830   22.492834   37.116875
H   21.442375   28.317085   59.347584
H   56.301941   31.487452   12.546266
H   16.686152   55.625603   60.787613
H   70.130020   93.086678   55.158188
H   23.874191   43.535480   59.467030
H   97.836823   27.269398   36.202854
H   39.113911    8.369354   87.284058
H   74.073181    8.927991   35.952827
H   36.593727   55.158451   58.308735
H   43.024982   65.551895   82.630020
H   67.815002   67.912323   80.665947
H   58.563385   92.952789   86.206894
H    9.459567   49.157097   23.552498
H   32.572128   61.574230   98.495422
H    4.184984    9.465027   68.422165
H   68.517647   14.940166   65.895088
H   73.123840   57.426460   90.292572
H   76.360588   95.115784   35.278889
H   24.814816   30.444180   79.728508
H   52.881531   89.876198   11.554466
H   57.513172   25.732971   87.380821
H   89.105080   76.320030   77.255630
H    5.059323   38.561127   85.340553
H   40.997284   99.779785    5.402802
H   77.113335   78.957832   35.219036
H   98.596565   62.408653   69.709198
H   54.650723   56.766499   69.202713
H   61.052963   21.859837   77.323372
H   45.382130   92.456924   21.096163
H   10.253286   24.113955   64.151550
H   30.264202   74.586021   38.895676
H   75.388794   41.882774   20.910189
H   76.004410   11.063149   25.771338
H   11.302529   93.112495   12.816205
H   20.859241   91.900925   39.154743
H    8.219452   12.386963   65.628654
H    5.118665   25.608084   93.900398
