200
TIME:    0.246, STEP:   246
H    9.655524   62.455082   15.442173
H   28.017763   32.965759   90.140755
H   18.011932   69.400772   45.643730
H   18.044758   77.043892   44.342796
H   15.146440   83.881317   53.572235
H   89.423401   52.652145   65.371819
H    3.446160   55.299873   49.767498
H    3.023083   89.145477   24.859356
H   87.672142   87.416275   47.573048
H   10.649990   74.814842   95.835793
H   12.402811   94.722359   93.151276
H   30.802612   42.182991   13.028167
H   11.321437   87.207008   61.045769
H    4.120075   53.232250   42.554928
H   19.332186   71.990776   42.963829
H   29.125500   25.719151   54.193573
H   84.489670    7.999508   15.140739
H   36.419701   83.455475   43.413548
H   65.225052   29.484695   42.572159
H   90.075340   79.622276   37.238132
H   58.157082   77.057770   25.565586
H   89.895454   49.043709   70.343475
H   94.825539   62.497833   48.992241
H    8.735318   88.113884   91.567268
H    3.507252   12.945284   45.196255
H   18.656126   62.602535    6.758383
H   99.011940   58.917149   49.323105
H   94.647980   70.376945    0.747059
H   11.321301   56.347359   38.303230
H   92.778290   20.925077   98.418350
H   13.353659   51.699924   16.202148
H   31.816944   63.646957   93.750847
H   26.978325    9.114645   73.252441
H   96.227974   63.584465   38.395172
H   47.700504   89.553085   34.173450
H   32.865265   49.785149   79.545280
H   86.436676   74.299500   85.999977
H   32.618114   44.910519   14.897671
H   52.848190   46.185764   44.565002
H   90.025208   39.663815   63.462006
H   80.506096    4.943522    1.723434
H   13.637957   42.981071   39.653229
H   76.593826   87.644096   50.551075
H   37.267899   63.525345   18.962923
H   28.982004   76.478210   44.580437
H   40.975357   13.682348   42.753132
H   80.087219   25.918228   96.310570
H   89.969749   65.550514   47.431961
H   87.312408   28.524471   61.170658
H   61.902683   17.828581    5.458582
H   78.065506   70.420174   27.630947
H   20.908754   35.801250   63.670662
H   52.338562   94.250526    8.006722
H   22.317295   82.310318   81.792015
H   76.944931   76.251495   90.579308
H    5.228739   72.202248   78.844696
H    5.413361   16.768166   49.590229
H   67.474228   58.718876    5.195148
H   28.054556   74.593369    7.271602
H   42.964520   95.955482   66.883316
H   50.400085   15.259344   42.061203
H   90.044495   16.439096   49.112164
H   71.612610   25.330763   84.682495
H   24.271412   65.160896    3.801466
H   71.444824   76.168518   18.174952
H   38.504341   16.794230   32.971146
H   85.951027   23.035427   85.959084
H   97.307823   91.463570   87.390343
H   16.735907    5.934329   61.903862
H   45.202427   41.734562   50.982273
H   58.462532   76.695908   73.441833
H   31.971870   23.664122   44.722828
H   77.684219   25.766827   99.294846
H    8.060834    8.832810   60.747288
H   79.218094    0.968706   67.330597
H   53.465416   18.864773   62.838264
H   95.402222   30.173563   72.060707
H   26.333008    6.079195   47.762367
H   11.576176   29.960749   34.805569
H   68.185684   90.633484   93.977081
H   43.622753   30.000643    1.044561
H   26.900280   68.482353   87.671745
H   10.976304   13.732116   90.104164
H   24.478407   62.055794   94.047089
H   38.694557   99.387299   57.612160
H   24.836254   85.564392   27.657921
H   36.124130    2.796612    1.785079
H   75.281593   18.321035   11.668496
H   65.871445   72.065590   77.188164
H   23.414078   86.316093   54.799496
H   40.991302   34.944592   80.727798
H   84.013634   88.588104   98.498764
H   47.544720   16.794430   95.558945
H   59.758816   94.218086   69.269417
H   25.276936   56.845039   68.189674
H   69.023598   27.843445   28.779573
H   79.386986   14.071646   98.587631
H    6.729750   28.531944   48.650379
H   36.881950   69.717926   52.902512
H   67.308754   98.024887   27.251871
H   10.133943   80.592285   69.222328
H   90.795418   76.747345   65.831505
H   23.303770   36.950684   30.586693
H   22.164213   67.950562   90.400635
H   25.330786   27.393883   25.282063
H   87.660637   26.479124   43.609863
H   65.942528   30.171282   56.231308
H   64.715858   34.504745   18.509600
H   72.949043   40.013916   99.422722
H    4.559474   27.976732    5.566630
H   47.273483   96.014641    0.800072
H   86.234879   63.496201   90.579506
H   56.989830   80.344284   93.804863
H   63.203850   19.267994   74.799255
H   63.650032   82.218414   26.562283
H   13.793630    5.621782   79.205063
H   32.328251    8.527196   84.250046
H   40.740673   27.291805   33.858574
H   19.090204   57.938877   83.243118
H   70.940971   46.794613   49.566582
H   40.617195   21.799305   87.323219
H   18.030209   27.337894   48.364655
H   32.381050   21.569515   24.207140
H    3.988911   67.102898   17.602459
H   76.736839    8.803540   92.614693
H   47.942165   62.516605   25.415537
H   95.237495   49.217941   70.823044
H   75.297432   87.617027   35.053249
H   92.541557   52.266483   84.753532
H   68.036011   24.120907   66.603828
H   48.851158   84.971466    3.640639
H   81.469704   86.110886    9.468480
H   92.418159   82.886650   97.419785
H    0.626369   13.156794   49.780952
H    4.722488    1.261633   56.141174
H   62.198273    1.619150   83.593208
H   68.902649   86.579811   55.637352
H   91.269524   64.033607   83.103569
H   46.470062   44.417542   71.548668
H   43.451195    8.802163   95.290771
H   50.914700   62.892220   15.103755
H   56.962082   41.193130   46.386761
H   54.812622   56.871426   99.181870
H   57.438148   26.310497   78.223854
H   40.583965   69.568085   49.264744
H   46.159973   62.079117   29.558807
H   44.873161   96.751518   47.238934
H   42.488609   73.195351   68.790550
H   65.345673   64.541794   97.884811
H    9.653240   88.740303   89.772400
H   76.008736   61.411846   51.298901
H   34.039940    6.943685   47.964302
H   76.454483   31.614239    3.253958
H   10.068501    1.280463   75.804253
H   13.850460   54.037495   60.861771
H   63.680214   43.543781   54.245552
H   59.374065   61.063511   80.826828
H   46.131371   36.563629    9.864700
H   12.107197    1.711724    2.382421
H   63.612408   56.699005   78.471329
H   54.014885   84.165627   83.256355
H   43.322399   23.025208   35.491997
H   65.477623   34.308357   37.229557
H   11.494915   20.355923   70.942078
H   58.896736   22.291952    9.883499
H   12.017070   64.248360   62.269024
H   74.796516   97.469917   52.285305
H   23.637455   31.205551   48.260822
H   94.154488   28.150698   36.842766
H   26.746765   10.414435   90.335785
H   79.250366    5.705173   35.975571
H   45.955666   65.224274   57.476540
H   37.788872   77.196426   90.255203
H   71.150536   74.400452   74.382950
H   71.158997   94.991409   98.949303
H    1.092622   47.693260   23.292501
H   35.356106   53.108582   87.158958
H    1.783178    9.206581   64.956924
H   75.448128   21.240084   69.064667
H   86.015114   54.519463   86.469643
H   81.308273   85.404427   41.579796
H   19.348688   30.113369   69.835205
H   65.358932   90.159531    6.188782
H   51.611565   25.231451   77.411018
H   85.600555   88.074142   78.372116
H   99.386040   36.274399   83.984230
H   31.560938    4.421791   99.398087
H   90.132797   67.478706   25.736488
H    6.444622   61.200161   66.611984
H   49.722679   58.240673   65.778824
H   48.106899   30.825836   79.258614
H   47.603729   85.092255   24.547964
H    4.233746   17.666767   57.943657
H   34.998737   63.770561   33.434200
H   84.688705   53.987339   21.796658
H   75.342789   10.398169   29.484169
H    9.501163   85.723015    3.669291
H   28.735117   97.286934   46.797501
H   11.833299   11.628683   77.748726
H    7.945157   34.789471   97.665436
