100
TIME:    6.140, STEP:  6140
H    2.099613   58.952873   93.524673
H   30.902504   37.581799   65.253578
H   85.305054   15.640185   51.270481
H   82.507187   79.681915    3.607772
H   40.175629   64.905502   99.225555
H   32.805706   94.556175   86.811180
H   31.173275   75.940468   70.609077
H   37.294403   19.790340   44.439861
H    2.694989   95.957321   13.595357
H    7.055025    4.545004   48.123569
H   29.127182   13.298611   48.313278
H   21.493660   31.456913   55.876976
H   52.260727   90.292046   14.920341
H   51.064522   86.150673   24.496624
H   55.182442   21.577759   55.629055
H   54.648010   74.702126   23.367493
H   30.364937   88.084236   32.336769
H   32.368031   96.066833   86.681190
H   40.898891   35.934242   86.841309
H   27.095161   75.421425   34.372337
H   99.920425   44.961369   90.593346
H   51.028122   52.234924   96.400589
H    3.764728   44.685997   56.678055
H   48.563816   10.280489   51.064175
H    9.983138   99.226181   81.885170
H   18.556738   45.146317   13.039742
H   32.619507   87.244583   21.793516
H   14.466714   43.034142   69.730698
H   44.679497    6.161080   66.931061
H   36.427296   38.874931   71.501053
H   57.704781   72.640587   23.601677
H   53.440556   82.869720   30.853477
H    2.849829   19.250643   50.936646
H   37.531960   11.028325   13.083036
H   28.147984   94.782204   98.610901
H    6.377573   66.339882    0.122016
H   68.704109   79.674927   92.273415
H   10.216034   46.589733   55.723255
H   85.900879   47.635857   49.300484
H   84.873871   37.377003   21.116468
H   15.626205   66.858955   87.001442
H   82.768158   65.681152   93.417778
H   64.128143    0.319818   44.972427
H   87.284073   15.702536   81.072227
H   24.056576   89.639389   81.526474
H   98.869408   80.027939    8.105627
H   89.703415   58.752213   84.403221
H   56.567326   58.609985   48.486317
H   44.507050   23.935272   99.545792
H   54.652569   24.186201   54.223808
H   43.079990   76.865997   18.152290
H    3.525553   93.993164   70.983315
H   36.234516   57.610535   46.267712
H   34.503212    7.020772    2.758402
H   51.919212   96.684769   52.572910
H    1.243122    6.075039   83.606705
H   85.501183   12.379727   39.952614
H   68.858551   97.039955   55.403427
H   74.524933   98.198570   40.114342
H   53.841125   99.727951   88.974388
H   47.016834   93.033829   35.673054
H   80.997322   70.791824   17.537636
H   90.904991   88.300209   12.432220
H   64.663803   75.210297   60.441776
H   76.031036   70.453476   67.360466
H   24.156364   37.035393    9.228341
H   94.944382   60.635723   63.501480
H   56.233986   68.690407   59.730106
H   62.920773    8.605080   75.143311
H   54.778580   56.967613   88.804047
H   27.060432   77.635330   88.495003
H   67.695084   47.750397    6.163447
H    6.651368   14.597565    4.316216
H   95.045647   60.817242   38.335045
H   58.203671   37.394619   66.851700
H   70.813820    1.088631   82.785034
H   24.426807   94.371437   99.636879
H   20.448696   49.241402   53.530144
H   55.946796   35.483608   86.185936
H   98.414169   74.544655   91.954765
H   31.022608   92.802780   46.962132
H    2.037012   84.289551   73.329948
H    6.242657    9.801158   14.685543
H   72.570946   37.572533    2.623644
H   53.362358   64.826027   52.548218
H    9.976536   34.586052   68.163422
H   77.231438   56.924767   16.322393
H   54.777092   13.744307   31.915543
H   83.105087   52.306602   77.973518
H   23.479933   56.661404   43.706818
H   75.296745    4.974663   63.127361
H   32.596722   57.265884   50.515984
H   79.039368   11.748914   93.820206
H   40.674580   85.679878   40.809723
H   50.435402   99.744980   57.176548
H    1.060389   53.269440   50.310013
H   75.238121   20.042238   84.072144
H   26.425707   90.265976   55.619423
H   16.217407   63.317425   30.747833
H   20.590647   21.072918    6.254284
