100
TIME:    4.759, STEP:  4759
H   95.491127   85.596840   94.789017
H   69.043373   62.748711   78.176575
H   61.557556   16.285515   67.483421
H   82.275391   36.580315   79.306648
H   52.545120   54.212341   36.667755
H   54.225788   96.052315   50.046314
H    3.551879   82.688263   62.613003
H   45.838280    0.316693   71.239037
H   36.642632   28.735046    0.524077
H   44.788795   84.715553   94.045868
H   57.584442   57.731205   81.338196
H   74.204201   62.234718   54.178032
H   40.385422   73.803947   52.143799
H   19.443512   90.407295   19.401728
H   38.388115   44.934113   22.011044
H   10.174580   95.489395   38.002869
H   41.416725   96.742371    6.618894
H    2.836051   63.259251   34.554150
H   19.391430   77.999893   14.085581
H   64.298546    4.753317   40.347450
H   81.870918   82.443939   28.077160
H   18.630310   50.401627   14.005432
H   22.204521   55.917580   96.188782
H   76.878815   93.758392   53.628998
H   59.374786    8.746391   71.686134
H   24.852114   85.968399   42.903255
H   51.705521   44.651615   94.392189
H   30.991528   78.573746   24.078691
H   14.651225   80.865837   32.210884
H   83.474823   73.054344   61.715370
H    3.350729   48.803875   32.862007
H   66.243385   21.026833   58.699577
H    5.574280   20.291117   26.525259
H   79.180344   37.588715   71.262184
H   62.475494   99.176041   14.518822
H   86.329620   58.174046    4.465471
H   36.249184   30.251755   83.455978
H   67.291924   71.862785   58.269779
H   44.194508   77.727226   83.130020
H   14.949183   66.662514   12.462156
H   10.008064   19.477057   54.465679
H    3.908779   25.443911   26.381937
H   52.232891   92.038254   45.221107
H   75.464752   92.523865   46.045387
H   43.847485   44.124786   63.351093
H   16.690083   53.687458    2.493703
H   78.914352   83.648094   71.148689
H   56.493572   44.386124   63.037880
H    4.142765   38.309040   54.637123
H   25.688160    3.166373   50.812698
H   43.181538   10.192581    3.594294
H   36.410271   22.139372   61.643799
H    7.587360   49.603027   26.473314
H   66.481377   29.556641   41.817284
H   61.876373   75.657234   40.825054
H   99.520798    7.527717   30.619217
H   97.952637   52.227852    8.607967
H   71.690567   27.459051   90.973618
H   65.607765   39.848953   46.132401
H   44.973286   93.580063   28.253304
H   59.902130   57.255039   43.346329
H   30.008631   83.645981   80.025101
H   97.148521   82.537277    7.131554
H   69.832619   67.687454   97.930557
H   21.214567   80.751038   38.754368
H    8.992779    5.689018   27.572546
H    5.744673   12.894290   96.826035
H   51.629128   89.709061   93.710320
H   94.089218    7.834930   61.757874
H   26.804007   87.506348   91.712036
H   70.912666   71.597549    5.059221
H   81.565521   93.582840    5.053046
H   96.695145   82.906624   39.728363
H   25.444370   48.221127   20.389736
H   91.622078   35.424351   62.162563
H   38.164352   12.579565   75.708450
H   99.040909   14.067482   75.213982
H   55.566799   39.541142   77.262230
H   89.724663   39.540043   70.782021
H   66.134827   49.769070   10.929090
H    3.998245   78.515701   64.423149
H   98.398064   75.307449   88.832542
H   18.891512   86.706604   83.167068
H   77.560867   19.396944   28.755920
H   20.605459   51.207535   86.420799
H   41.764233   83.860954   72.262573
H   84.997566   57.334854   50.471054
H   32.558075   24.277338   46.251709
H   54.446640   29.198259   89.268318
H   45.579357   13.476425   94.340775
H   18.780602   30.404522   33.963177
H   30.416704   53.401398   24.207106
H   90.514732   70.314171   87.025314
H    7.202643    1.900678   47.693027
H   74.310417   23.447189   25.442619
H   86.995453    7.804261   21.640633
H   84.855522   40.789791   63.494507
H   24.334196   56.757721   79.881248
H   82.005402   57.364475   46.421410
H   34.810604   56.507763   39.290829
