200
TIME:    0.840, STEP:   840
H   27.907789   60.483723   25.599205
H   33.311829   41.637474   14.255206
H    5.562199   95.400055   74.901421
H   38.067307   83.986702   28.809845
H    8.839789   98.936157   45.031944
H   70.099548   36.530052   47.790291
H   12.052154   54.878410   61.264828
H   16.334291   14.794524    3.775149
H   11.794588   78.511169   33.082424
H   89.740067   66.493675   72.406075
H   33.106716    7.411202   11.922234
H   33.258881   58.037704   41.331200
H   25.900433    6.921297   36.700615
H   76.044868   55.738369   71.178154
H   90.654068   76.563423   41.502304
H   11.811665    1.244852   41.379738
H   12.432134   35.819317   86.300575
H   22.315063   12.011437   32.838451
H   84.988495    7.980096   51.316383
H   91.965126   71.464928   14.211705
H   65.285698    6.709537   98.352081
H   76.671486   71.748329   47.453049
H   77.037987   58.178970   34.739540
H   21.316895   93.529457   89.704674
H   29.325485   36.835060   24.000744
H   18.164419   88.964249   87.139961
H   10.515193   70.835945   73.206009
H    8.280534   94.880714    2.310035
H   36.339436   38.292427   34.825027
H   65.936081   36.837917   77.870895
H   12.578144   76.516396   16.928379
H   21.015255   77.568832    8.375601
H   12.625923   21.895929   80.507950
H   76.568764   64.232521   48.777664
H   19.194593   65.008530   29.654596
H   13.462029   36.241684   86.356667
H    3.485397   61.478867   90.459328
H    3.236707   60.275791   88.190765
H   30.864136   24.915855   57.768578
H   84.328659   37.221142   40.258881
H   80.682838   77.195114   21.439613
H   43.203812   30.525118   22.039513
H   65.898636   73.998665   72.607643
H   35.944595   92.375130   40.206715
H   49.277771   94.601120   66.016136
H   32.616341   98.223640   49.213299
H   91.280914   96.816406    9.333678
H   75.508583   65.541451   26.077835
H   10.284507    5.983250   61.598919
H   40.645992   20.509176   80.329102
H   63.935165   62.901817    4.090438
H   98.202446   46.025127   76.441505
H   68.360313   77.263908   15.768401
H   13.476606   94.845444   90.588356
H   51.802170   63.041122   71.368752
H   97.614433   57.567871   98.295441
H    3.718185   19.015968   43.218433
H   73.963852   72.527451   94.473442
H   15.520563   86.068039   21.637943
H   29.226185   92.620033   55.902618
H   48.476311    3.670248   24.705967
H    0.720311   17.846239   53.666054
H   87.977158   37.635376   64.642609
H   38.663994   66.008354   17.063866
H   80.993454   85.023773   42.465076
H   15.202983   39.871208   43.648209
H   63.763039   10.505717   98.231361
H   93.981438   92.814064   99.150520
H   37.864258   13.961387   54.385506
H   41.783138   52.087597   50.950550
H   58.201950   86.969635   89.330536
H   15.277630    8.051019   40.564846
H   96.536758   36.036022   79.404510
H   27.412779   95.776360   78.040443
H   86.450943   10.584182   39.400742
H   68.479469   97.894142   58.956726
H   92.891571   52.286774   63.658543
H    4.332212   16.895613   27.450569
H   16.094820   56.421410   21.640615
H   59.234051   87.320694   65.807037
H   68.833488   19.961439   92.225800
H   53.019436   57.799442   69.308647
H    8.658824   20.247797   72.724480
H    5.108145   81.479347   13.406709
H   17.542099    5.668628   40.778564
H   41.570633   64.781281   15.292772
H   62.746544    4.034376    3.146892
H   70.341866   96.213287   34.072777
H   84.050858   73.517563   79.331543
H   20.438911   12.941595   48.264553
H   16.091721   40.072392   78.085724
H   79.876045   93.799744   11.459721
H   75.763290   10.095207   78.641510
H   33.122807   72.877556   85.579582
H   40.327751   48.810051   92.929100
H   44.424660   41.124062    0.851063
H   87.444633   93.525658   24.169701
H   94.074669   38.392002   55.031448
H   23.422325   63.767593   55.007561
H   77.636864    7.676613   27.396891
H   36.636135   97.015747   97.192970
H   12.882722   85.734024   62.554970
H   35.616837   15.242217   38.886990
H   50.706261   69.047272   13.989657
H   24.543375   19.587753   44.540203
H   11.177088   97.397141   15.799445
H   90.407082   36.916416   52.709835
H   61.215458   57.311333   95.540901
H   88.044670   32.515953   28.145649
H   23.640871   19.694757    8.473818
H   55.088676   90.852852    1.217995
H   10.085365   78.433289   97.345573
H   46.673050   87.237244   80.884529
H   61.191704    6.462124   59.482239
H   43.827675    6.953128    5.734706
H   89.552406   88.245918    6.002126
H    7.905868   16.891371   91.174728
H   37.726986   56.529102   21.985100
H   41.648186   80.240158   53.886509
H   86.616676   58.649960   71.725906
H   46.816780   25.746555   67.858879
H   92.401031   13.266468   65.837006
H   46.701729   96.517044   41.828777
H   95.237579   45.728050   91.590080
H   58.962883   94.096855   72.969078
H   69.703888   78.768433   13.946594
H   80.472694   51.991440   47.882767
H   62.304588   92.275780   40.070019
H   99.851448   30.765072   71.216866
H   96.826920   21.305489   76.723473
H   72.829231   63.762360   26.340725
H   58.669914   92.002304   23.476460
H   90.478523   11.785860    1.838959
H   71.500092   28.386288   57.091412
H   34.066471   90.521149   28.845779
H   46.377548    0.856806   74.842186
H   69.886063   88.093452   85.207741
H   96.336143   45.486973   73.718086
H   61.996216   52.724442   71.408180
H   43.772957   80.314354   78.785736
H   80.321945   45.424164   34.291626
H   29.616936   59.241264   60.233860
H   35.717628   67.803749   79.146515
H   30.219795    4.808655   88.067055
H   68.504761   49.868088   68.688293
H   67.924644   72.312485    1.109985
H   58.921928   94.150230   42.985783
H   26.269081   51.084404   65.382591
H   81.225311   39.741234   91.979797
H   28.588295   95.225395   67.543625
H   55.072510   71.499771   46.814625
H   59.044479   90.507195   29.349686
H    4.049042    9.403591   82.402542
H   25.770477   14.914995   61.125111
H   37.404804   69.725357   71.607475
H   81.313683   45.016636   72.521332
H   65.591782   78.877884   87.860275
H   54.576492   27.033127   23.780910
H   84.920738   99.473434   80.353218
H   56.952839   32.462616    1.266488
H   59.849655   60.033470   67.462822
H   15.432657   19.946941   30.346069
H   91.046379    8.410007   36.982571
H   33.298645   37.805851   45.529053
H   53.209251   42.447403   15.719969
H   22.251144   45.348263   59.021946
H   64.568108   87.862373   58.582325
H   24.156353   58.231300   72.823502
H    2.226193   26.218992   35.440155
H   53.854088    5.931859   83.646759
H   67.902588   12.769210   35.925720
H   25.435038   43.161034   59.300613
H   49.265808   51.671894   73.541702
H   63.837578   60.187370   88.159866
H   43.550903   90.522995   71.019447
H   19.429314   50.905190   23.871338
H   29.253956   71.665222   12.006073
H    7.047724    9.773064   72.552322
H   60.256771    7.431153   62.117939
H   57.759468   60.891258   94.849052
H   70.463531    6.690993   27.769299
H   31.329794   30.838467   91.520157
H   38.008282   89.533661   17.954239
H   64.547401   26.330563   99.263649
H   93.282059   62.310516   75.924911
H   11.821106   41.286636   86.957130
H   52.244324   94.247444   12.559729
H   61.595673   92.639595   46.521523
H   89.242104   63.849033   73.400711
H   60.524368   55.009457   73.283585
H   76.482147   11.173424   75.016792
H   42.734245    1.234793   16.982023
H   17.427834   31.798241   71.551826
H   24.621584   87.476746   45.405109
H   64.304398   27.455757   19.853622
H   76.792984   11.855728   21.346081
H   13.449546    1.920069   23.718245
H   11.471979   85.481438   30.045479
H    3.912175   13.290743   51.182961
H    1.749769   14.664806   89.412918
