100
TIME:    4.159, STEP:  4159
H   36.065582   40.619781   95.338333
H   85.614418   30.233759   40.344124
H   51.244141   73.119240   74.523827
H   82.174683   61.299553   12.193557
H   57.919266    6.119693   52.936676
H   63.532124   96.702339   90.625664
H   34.997364   42.173710   15.692224
H   92.997093   48.407688   26.328175
H   51.391777   86.422424   38.292713
H   61.185890   76.100441   70.553436
H   13.394974   33.588749   39.133587
H   97.101540   32.159645   96.887383
H   78.672775   10.086926   11.763016
H   49.151405   92.256660   73.742462
H   31.091076   98.529083   50.853939
H   34.300797   47.967766   87.807556
H   89.665016   57.055065   51.998528
H   90.012047   92.448341   55.356678
H   10.046185   52.830017   82.474350
H   80.466759   17.495169   99.496727
H   17.475754   42.176121   44.360367
H   61.107727   49.605118   65.101013
H   30.215385   60.797340   13.355813
H   32.625359   86.562347   98.188782
H   80.834747   56.330925   67.254982
H   27.587252    3.703021   99.325493
H    3.443228   69.594131   82.490334
H   81.617249   50.567764    4.244469
H    1.603869   26.428818   60.573921
H   60.467621   87.904198   14.017258
H   79.738823   95.001457   80.332100
H   28.358870   37.602455   14.244560
H   63.313015   64.190041   72.472519
H   53.829391   92.575287   96.539894
H   77.389435   44.531670   77.981934
H   34.172031   11.179909    6.353174
H   78.700821   52.224594   36.178150
H   92.093559   82.839958   15.931215
H   69.521576   90.800957   41.273964
H   71.461403   22.831367   65.256958
H   51.013306   98.890991   40.329937
H   57.833908   98.515152   98.195221
H   47.064739   88.440231    1.883323
H   13.778845   82.471375   87.379639
H   95.893440   67.796478   12.007430
H   24.430866   42.243366    0.054594
H   74.226852   51.018700   65.390022
H   56.461529   38.206314   25.913246
H   86.602219   88.001495   78.570801
H   13.104236   94.036980   92.779030
H   43.227314   68.118858   97.268646
H    7.252668   77.815628    1.030170
H   95.142998   46.124023   61.322498
H   80.379082   39.348206   15.341674
H    9.648453   23.072901   35.720989
H   98.770065    8.159002   51.044632
H   59.912968   69.540474   51.542992
H   16.367912   84.121223    6.428272
H   18.288580   14.496490   92.194359
H   84.567642   47.463306   45.318733
H   22.053629   85.159203   90.127754
H   51.303581   89.230698    7.171513
H   56.415859   23.480534   48.275352
H   28.630148   64.419022   14.221783
H   97.399483   28.671200   82.878426
H   45.851112   35.516518   92.096344
H   53.884323   92.150360   67.858749
H   93.075050   55.395096   65.026848
H   64.188095   50.947113   99.386322
H   14.648092   57.329552   92.975464
H   89.964790   12.421267   12.257320
H   31.038879   13.496118   61.125454
H   35.817413   12.586079   55.113800
H   38.655102   86.189949   56.040215
H   62.691624   34.568333   16.678392
H   23.978258   74.126549   16.081924
H   44.565399   66.073044   64.603020
H   27.377712   78.774345   44.126549
H   60.950127   41.302433   64.089516
H   95.559875   82.446236   62.619652
H   92.259842   72.308426   28.562166
H   53.380501   71.388992   39.004883
H   80.937172   76.679352   26.024212
H   36.282814   68.053658   83.556442
H   49.820831   88.736565   44.583954
H   55.574963   61.823761   30.596924
H   44.924934    0.959735   21.860823
H   22.901419   72.314690   52.491028
H   41.995468   62.605659   94.175545
H   98.626602   38.163620   72.889969
H   94.225983   98.006264   21.292276
H   86.020309    8.279516   12.774565
H   52.053429   52.308723   40.626385
H   49.211491   65.508331    7.239061
H   84.683342   77.192101   11.656705
H   37.437958   31.496212   52.631233
H   32.480103    6.357129   98.000732
H   22.132353   51.649078   89.485130
H   10.588005   54.778111   96.676308
H   97.543388   71.904701   97.090027
