100
TIME:    7.110, STEP:  7110
H   36.501541   69.999794   92.636612
H    4.116214   90.143959   26.413101
H    1.985035   85.426155   39.881092
H   82.669998   39.719147   50.440250
H   31.487207   42.655193   72.924133
H   17.760464   93.505302   82.873550
H   80.334457   41.439342   46.464413
H   61.054314    3.707991   55.378014
H   78.850502    2.695803   52.538502
H   80.560219   18.474062   86.103004
H   38.900146   52.328785   54.877701
H   84.472031   80.078278   86.831825
H   90.368538   31.625736   18.534588
H    3.036936   83.160866   98.313301
H   66.964058   34.932579    8.983624
H   15.645756   89.862305   42.849121
H   52.363228   52.241100   20.639704
H   53.111668   48.866364   53.055672
H   56.003338   76.627365   37.943867
H    0.963951   54.821697    0.414508
H   42.359238   48.394890   64.262321
H   44.022964   53.522614   13.796066
H   90.813454   36.797050   28.925722
H   58.437218   21.884493   79.023666
H   75.290108   22.301239   89.048866
H   14.083035   16.498505   21.799906
H   48.976093   46.923454   41.042248
H   32.620865   88.310478    1.790027
H   65.770958   94.167091   21.078367
H   73.622269   14.867580   48.612938
H   95.877846   59.622231   46.858437
H   14.686865   56.067257   41.055733
H   71.176765   48.280632   38.321907
H   78.515999   22.133530   72.218445
H    4.007382   21.343239   57.630959
H   90.698082   42.314789   97.072945
H   61.739639   44.152466   68.705536
H   70.121437   28.835903   24.174599
H   44.957798   26.500956   55.300369
H   93.511055   46.569225   97.434189
H   49.333176    0.146434    9.853493
H    1.021769   69.485016   42.937862
H   72.475922    6.138699   15.037285
H   25.346401   31.983664   75.913200
H   39.915932   51.366383   64.532051
H   86.347740   98.529221   12.046400
H   97.281540   11.503758   93.713066
H   56.621578   68.600677    8.504240
H   72.860725   43.599331   60.855309
H   75.015381   38.952183   86.401009
H   43.013386   83.218704   28.376099
H   50.674679    3.983097    7.309546
H   56.356510   63.234924   89.931007
H   12.042656   91.195999   45.560440
H   74.686020   81.691582   60.824482
H    2.451256    5.054693   50.585617
H   46.994267   84.390236   32.207710
H   96.630783    5.435361   30.419062
H   51.026878   39.188961   65.650063
H   89.832451   74.286987   61.385277
H    8.204527   47.922943   60.043312
H   46.570137   61.763199   73.650177
H   56.759418   22.109470   45.916412
H   31.270264   80.494263   34.103352
H   14.530089   92.980225   57.692432
H   64.568909   88.814262   66.582535
H   17.119883   94.174103   10.332622
H   89.229301   24.166159    6.101714
H   11.262495   38.907074   14.305102
H   74.430870    5.753412   86.761505
H   96.257011   11.637435   76.861397
H   87.768776   15.528953   77.207832
H   43.406265   66.620728   79.449280
H   73.687767   99.428101   80.701782
H    4.967869   38.784275   40.386600
H   93.740608   63.258602   17.516962
H   12.522408   10.411434   16.838221
H   66.021057   85.815041    7.097325
H    2.464825   32.634411   97.005486
H   50.843674   21.704273    8.388345
H   50.004921    2.838529    4.937563
H   74.824745   90.580124   92.181862
H   67.599846   26.022375    7.063106
H   39.306179   20.577248   14.029030
H    6.131575    4.148961   58.517601
H   87.653610   70.218231   35.523300
H   42.015614   86.397545   62.575600
H   70.377373   36.124416   21.858246
H    3.234927   98.299339   70.040169
H   37.719181   16.750439   78.381287
H   14.993244   57.349945   83.611984
H    4.366899   30.218918   68.997063
H   41.218113   40.855129   68.831795
H   34.420738   44.528282    6.215365
H   33.665840   12.858604   79.466888
H   81.178421   14.965981    0.207965
H   98.244347   75.708099   28.286831
H   24.553377   38.262142   36.148674
H   70.009087   67.504906   49.500896
H   80.840294   96.181015   12.811004
