100
TIME:    5.732, STEP:  5732
H   29.690233   96.368645   93.898209
H   42.170662   15.471650   39.526493
H   78.288818   86.287354   56.061069
H   82.438705   96.490997   25.972061
H   43.830048   32.202499   10.287642
H   39.134014   94.998192   46.405773
H   52.555111   48.390484   38.702946
H   69.362396   84.492722   81.900841
H   12.724434   35.185043   39.277969
H   18.200380   98.686394   32.148716
H   67.078354   96.882217   87.614159
H   37.066963   11.006054   84.919334
H   78.296127   14.964996   55.461357
H   71.266548   87.408241   93.447197
H   50.221016   58.022049   75.241364
H   71.052429   10.387404   57.235077
H   63.173775   61.096653   95.194916
H   23.642874   15.918961    0.825639
H   34.545681   18.816996   65.344360
H   38.086433   84.087440    6.593795
H   24.131706   85.578552    1.668414
H   11.912766   51.693298   31.145508
H    9.212600   48.004234   68.351028
H   86.472679    5.399630   81.365433
H   24.574677   31.583595   78.871986
H   20.416632   57.208389   51.405685
H   67.803070    4.203601   13.697363
H   48.891850   23.990074   56.244286
H   35.808037   69.143890   86.217926
H   20.783516   48.972832   39.065750
H   41.645882   36.055195   55.881340
H   27.679081   94.144257   68.624107
H   74.112297   49.101662   14.180783
H   20.292255   48.419090   30.270323
H   38.290054   25.624662   73.766205
H   70.910614   34.383949    1.405135
H   29.572720   94.616333   60.124493
H   27.078754   54.057323   26.933033
H    3.121313   56.525993   88.839180
H   23.303446   75.573143   89.016319
H   43.509689   52.860092   77.389137
H   17.152416   64.081177   72.586967
H   60.613911   97.873047   15.502759
H   13.336861    8.854391   41.180450
H   59.446270    5.737884   46.613384
H    4.134836   72.245956    6.448065
H   86.515915   36.564224   80.487328
H   56.545536   54.407715   23.241568
H   32.581940   57.724640   15.821700
H   46.095089   17.976057   82.760422
H   43.108006   16.255861   13.851579
H   83.697334   31.852345   97.765785
H   27.770832   55.244812   69.964622
H   43.950539   13.678258   84.754234
H   84.404320   60.930958   49.102146
H    0.734933    6.504215   97.495987
H   59.634399   24.152550    1.148251
H   99.239410   35.571327   65.912216
H   42.346977   80.959923   71.435265
H   80.765610   68.369675    0.578877
H   21.279613   12.007935   67.483025
H   95.478035   74.589432   35.999611
H   63.207272   16.141493   40.410004
H   36.645630   72.987762   71.518097
H   59.837486    3.038377   29.365602
H   49.220085   57.318352   85.103905
H   27.679756   46.531658   43.803726
H   84.417213   45.356907   40.225346
H   42.584896   37.921364    0.730539
H   46.514114   36.444969   89.663177
H   40.016472    5.395363   93.388313
H    1.338062   61.291046   76.292740
H   33.254761   34.777802   14.778313
H    4.027859   86.640587   62.577477
H   38.533932   36.812527   35.922989
H   61.169472   74.941093   10.239084
H   87.383476   29.734091   92.421425
H    1.280112   75.919762   30.996637
H   36.382893   36.682034   81.635033
H   18.422264   96.769997   27.104137
H   23.038294   88.581833   22.577112
H   71.413528   81.643677    7.458863
H   80.436943    2.978437   75.830765
H   44.501938    2.658435   39.887119
H   73.228203   90.344704   92.099365
H   19.367832   19.599243   39.830780
H   49.982048   86.589684   96.867310
H   48.215324   46.393520   36.145828
H   74.638290   75.023766   81.310432
H   59.553722   73.446945   29.123075
H   58.599724   82.942719   54.511150
H    2.408853   26.580248   42.743340
H   52.885681   99.506477   62.268940
H    1.243845   60.926952   13.298938
H   57.488991   36.292187   47.800816
H   67.361282   69.381256   71.383621
H    7.623430   96.628609    7.536630
H   27.213243   70.076401   63.809181
H   35.653687   61.558697   64.923103
H   95.248352   31.542797   45.559345
