100
TIME:    4.254, STEP:  4254
H   29.641155   31.907776   95.251358
H   82.990669   35.381958   46.334534
H   52.877098   79.954033   73.409096
H   82.190628   57.385674    6.986122
H   57.068359   13.734363   50.360764
H   62.058620   96.599419    0.033470
H   30.018620   48.588848   23.121347
H   85.530281   56.626110   17.605297
H   49.056496   77.288589   32.312450
H   58.589684   77.464500   74.273071
H    4.558304   37.411304   29.983002
H   93.476128   36.921532   90.125069
H   72.610611    4.341858    2.323264
H   44.447502   91.963844   80.971542
H   32.246681   90.043213   46.287022
H   30.480995   39.658745   79.921814
H   82.025703   63.338291   60.646751
H   92.041466   87.828514   52.062496
H   11.525848   56.815651   87.479767
H   77.906792   15.477709    5.964699
H   11.838318   32.718304   41.782280
H   70.215469   49.731232   57.010880
H   28.946999   60.024712   10.637660
H   23.798836   87.701721   91.133652
H   77.436920   48.796707   67.956581
H   27.154188    0.894532   90.391701
H   95.251457   65.645462   84.374794
H   73.601044   55.002045    7.384814
H    3.669663   35.047817   56.083107
H   64.110428   85.552971   21.569233
H   83.477303    3.520449   72.816002
H   34.357250   34.977982    5.449955
H   70.004372   57.239281   81.030869
H   57.843292   83.869080   92.537590
H   75.028061   37.350426   83.767227
H   42.430317   18.620747    6.054288
H   87.812912   48.745590   43.663807
H   88.166634   81.101906   22.634823
H   65.512024   88.730949   32.067650
H   62.513237   13.937758   72.731018
H   44.520615    2.150678   42.568096
H   49.295853    2.778788    2.658357
H   47.883030   89.009918    8.745195
H    7.712690   84.063019   96.668579
H   87.652550   64.047852   20.137064
H   23.205242   44.055347    0.440784
H   74.969040   56.185020   66.301811
H   56.466602   39.184784   31.791313
H   89.379623   80.133148   74.781586
H   15.096690   95.482216   86.134132
H   43.220066   58.947334   98.270309
H   11.869234   69.000702   94.793945
H   97.112984   46.674866   55.804653
H   78.178612   37.797874   19.533512
H    2.084629   31.398592   36.529133
H   98.888931    8.058981   47.810608
H   65.935501   66.799309   60.578255
H    9.294110   75.149742    3.981191
H   25.780760   18.510685   84.901497
H   78.298187   54.765591   42.616707
H   28.046576   80.740868   82.720375
H   47.931847   88.346451    2.872871
H   62.865788   16.997627   41.760918
H   35.153816   64.936523   11.642246
H    1.169985   21.083710   91.725243
H   40.015083   30.793770   97.713486
H   46.262405   95.435120   72.445236
H   86.512779   60.828140   69.568398
H   68.922440   44.121017   93.428528
H   16.572779   62.108109   92.775421
H   86.948204    5.957386   11.117584
H   23.205685   10.343089   68.080864
H   29.623198    7.887249   52.677773
H   36.563351   80.178520   50.395531
H   67.272102   34.703869   23.880293
H   26.224390   80.214806    9.689796
H   53.191154   57.838856   66.283089
H   31.840984   72.562874   49.373322
H   65.505684   41.023388   65.149162
H   90.900909   77.272667   54.435295
H   94.118210   73.291245   34.239971
H   60.508835   72.009415   31.061113
H   86.947151   78.265198   35.072521
H   42.818268   76.182930   74.879227
H   45.195206   82.794716   35.374741
H   53.388264   65.313362   37.193985
H   51.269768   94.052460   26.390776
H   24.430368   64.708717   51.503136
H   43.966904   57.316124   93.398567
H   90.227707   34.254814   76.286346
H   98.113770    3.136096   23.298502
H   93.049347   15.423615   14.584787
H   58.143135   55.159332   47.972881
H   58.393887   71.270432   13.644403
H   83.040962   68.683037   13.839599
H   45.284561   27.745049   47.724388
H   24.939701   11.808837   92.537247
H   22.480978   52.457947   87.964516
H    6.062440   55.187618   88.719536
H    3.444282   69.466499   87.938797
