100
TIME:    4.909, STEP:  4909
H   85.347084   71.841042   94.651688
H   64.900612   70.876480   87.633972
H   64.135971   27.076721   65.723320
H   82.300568   30.400356   71.085213
H   51.201584   66.235504   32.600525
H   51.899204   95.889809   64.901817
H   95.690117   92.816284   74.343201
H   34.048576   13.293370   57.466671
H   32.955345   14.313168   91.082649
H   40.689522   86.869331   99.918976
H   43.631805   63.766819   66.888885
H   68.479866   69.753487   43.500694
H   30.813583   64.733360   37.239014
H   12.016715   89.944954   30.817209
H   40.212303   31.535391   14.800646
H    4.143063   82.369888   25.551399
H   29.354652    6.663805   20.273985
H    6.043661   55.961353   29.354246
H   21.727741   84.291855   21.987726
H   60.257553    1.567859   50.560158
H   72.969704   67.511688   24.005924
H   33.010956   50.600754    1.231599
H   20.201805   54.697639   91.897247
H   62.942112   95.554169   42.488174
H   54.009796   96.850555   72.793922
H   24.168329   81.534958   28.798281
H   38.770264   38.415730   97.367653
H   18.334934   85.575241   29.037416
H   17.912910   94.475151   25.120682
H   89.226624   69.341881   73.640114
H    9.254441   62.254116   20.994484
H   75.714516   16.882927   44.813316
H   16.140320    9.316805   40.038445
H   85.518082   23.842072   64.942757
H   58.747009   87.837234   23.652351
H   99.369019   69.922554    3.993547
H   50.635551   24.758018   95.275436
H   61.092052   69.118492   68.854942
H   37.862492   74.458794   68.593735
H    0.820895   52.619682   24.263876
H   99.756897   24.623465   57.999615
H   90.427513   32.175911   33.428066
H   53.524929   92.937759   56.055229
H   65.886047   95.040222   60.711365
H   30.836645   38.207047   76.186790
H   14.754702   56.548481    3.103458
H   80.086227   91.805443   72.588356
H   56.501583   45.931076   72.319038
H    8.527122   25.886478   48.653008
H   28.834141    5.449469   40.321899
H   43.170094   95.710846    5.175581
H   43.700157    8.220495   51.796158
H   10.698741   50.472778   17.761499
H   63.007278   27.108749   48.436546
H   49.933319   88.804207   42.101070
H   99.708481    7.369931   25.512863
H    7.462001   47.899696   22.874321
H   60.521133   13.293037   87.110092
H   77.438667   46.186691   34.616211
H   35.075291    5.109302   23.986946
H   69.364105   50.279865   31.651611
H   24.685411   82.249802   73.238754
H    7.331910   72.301682   96.845581
H   80.132301   68.504562   93.858749
H   27.168356   68.771362   52.723026
H   99.778526   98.232262   36.441719
H   93.709839   18.080009    4.068135
H   41.267647   98.287552    0.881187
H    1.564697   97.056908   52.349686
H   29.842985   95.050293   91.396179
H   66.149635   61.391708    3.259751
H   69.196747   88.604660   16.035370
H   86.915024   75.486275   35.882004
H   22.142750   38.728252   11.477650
H   98.854744   35.638355   73.533417
H   41.710876   22.193174   65.614761
H   12.659975    1.066408   77.866722
H   62.614071   29.732544   85.545464
H   96.918419   39.099445   72.455147
H   58.778564   41.599133   98.006592
H    6.933511   80.067520   73.388451
H    9.652940   76.287064   76.289818
H   28.379808   89.215149   97.451584
H   87.881149   32.233200   15.056178
H   13.301373   41.824524   71.879936
H   38.311550   89.370140   82.678986
H   95.015724   46.428635   57.623611
H   34.972778   12.268391   44.691879
H   57.559433   20.846933   88.041512
H   32.316799    7.304626   99.703476
H   24.919212   38.503620   37.130901
H   41.515186   64.682983   27.064695
H    0.130054   74.816277   98.625046
H   21.700996   10.999383   57.806171
H   71.717186   10.010681   28.889008
H   99.384827    1.881203   13.892904
H   72.949089   49.398037   54.867950
H   24.884657   58.034882   77.480278
H   74.859711   58.011066   33.856941
H   44.127239   52.659115   24.840658
