100
TIME:    3.668, STEP:  3668
H   69.270416   85.647095   95.787857
H   99.237419    3.617090    9.376160
H   42.804329   37.794151   80.285225
H   82.092270   81.528130   39.107555
H   62.317108   66.763878   66.250076
H   71.144295   97.234276   42.000465
H   60.728863    9.017771   77.295311
H   31.588730    5.931223   71.411064
H   63.461494   33.630234   69.200600
H   74.604179   69.050407   51.326324
H   59.066605   13.832275   86.429024
H   15.842331    7.548534   31.836245
H    9.941432   39.788391   60.558823
H   73.463158   93.770058   36.376766
H   25.118027   42.386520   74.456032
H   54.042389   90.912285   28.565615
H   29.148506   24.580708    7.300863
H   79.523155   16.326027   72.380554
H    2.399002   32.230583   56.605320
H   93.697746   27.922251   66.067131
H   46.612396   91.056030   57.685005
H   14.035080   48.953308    6.914166
H   36.770943   64.790611   27.405132
H   78.244545   80.673584   34.655895
H   98.396149   95.267929   63.628822
H   29.838430   18.315840   45.368896
H   45.783375   90.002518   72.750648
H   23.046961   27.649536   88.015923
H   90.927567   81.881790   83.784340
H   41.640060    0.056329   74.984192
H   60.416088   50.971699   19.178459
H   97.357094   51.166840   59.698921
H   28.726072    0.114489   28.239363
H   33.083862   37.572365   17.224072
H   89.594009   81.647362   48.083092
H   91.478020   72.626740    8.025525
H   31.608261   70.205551   97.489494
H   12.387834   91.822945   81.281807
H   90.244629    1.499361   88.856071
H   17.709179   68.798172   26.624502
H   84.570267   82.041336   28.762190
H    1.962189   76.480988   75.127151
H   42.835468   85.495850   66.416008
H   45.132050   74.245087   39.371552
H   38.483852   87.170959   69.991394
H   30.765408   32.878284   98.061623
H   70.390915   24.316441   60.674873
H   56.435307   33.149170   95.533012
H   72.247421   28.665848   98.155060
H    2.806392   86.567390   27.119778
H   43.264774   15.521748   92.091629
H   83.391006   23.375919   33.264698
H   84.961281   43.277039   89.837654
H   91.752037   47.360970   93.675934
H   48.741898   80.040466   31.544367
H   98.155716    8.675955   67.759430
H   28.787180   83.707970    4.844723
H   52.929192   30.490601   19.076042
H   79.563850   93.750137   29.888432
H   16.969322    9.722029   59.283943
H   91.080574    7.994035   28.409809
H   68.730125   93.800858   29.388878
H   23.080416   56.985527   81.944695
H   94.914177   61.747513   27.553913
H   77.912621   67.887886   37.154346
H   76.014168   59.925667   63.064590
H   93.277603   75.173340   44.153851
H   26.992073   27.314524   41.554211
H   39.715294   86.227249   30.181927
H    4.700502   32.631958   94.009369
H    5.556112   45.829384   18.147957
H   71.522995   29.791504   25.175133
H   67.831009   36.871609   67.703117
H   49.466152   17.260708   85.214317
H   39.020443   33.867825   79.457069
H   12.369596   42.657333   49.119091
H   99.985146    8.628372   55.919712
H    4.309641   10.878572   17.009020
H   37.406311   42.744656   58.609131
H   19.639839    9.186089    4.919783
H   82.655014   67.228806   99.217087
H   16.538269   68.182388   80.061401
H   49.873363   68.483032   79.258820
H    2.503203   26.037888   28.401840
H   73.728012   19.448452   92.181046
H   66.875793   43.786613   96.500122
H   12.132162   36.659447   98.447601
H   14.999163   11.625257   57.596870
H   31.806225   89.944206   98.191292
H   42.038204   58.365974   55.337906
H   74.132263   71.491844   10.923257
H   49.689812   71.357964    3.418126
H   20.579941   37.575577    2.656538
H    1.753232   35.723816   74.132133
H   93.171852   21.172253    0.374594
H   96.883316   50.885628   77.991875
H   71.453827   78.179680   26.239538
H   20.330511   47.468506   97.344307
H   33.978233   52.661602   37.803696
H   67.043190   84.506355   44.389999
