100
TIME:    7.999, STEP:  7999
H   76.382561   88.474846   91.822708
H   79.563950   38.318470   82.468155
H   17.266413   49.383759   29.443607
H   82.819214    3.090797    1.709461
H   23.521124   13.912374   48.819016
H    3.973056   92.542183   70.914528
H   33.742870    1.467451   15.985386
H   91.180664   80.616814   73.752754
H   56.997185   17.221703   96.578094
H   56.278755   31.238787   20.912838
H   56.207535   88.099854   69.244553
H   50.543114   24.638912   23.551258
H   33.680138   77.816620   30.188631
H   59.018440   80.420723   65.968666
H   77.761848   55.522720   66.227814
H   79.900467   12.107275   69.053986
H   80.874977   11.043234    1.568882
H   72.120209    5.607737   22.241554
H   69.849350   13.920079   84.780258
H   77.008316   35.945911   60.941719
H   89.604729   59.892445   40.136784
H   29.252260   54.702774   38.089523
H   78.944023   29.568014    3.488671
H   75.836044   32.519501   12.998160
H   43.493599   51.800278   95.614357
H    9.891430   90.292953   38.140869
H   72.316986    9.967185   58.683613
H   57.608513   29.805975   31.176165
H   85.101173   74.823929   79.055351
H    7.710843   92.863907   19.286072
H   30.865873   39.341476   76.523659
H   70.819054   31.507710   58.756569
H   33.795452   83.237724   18.410048
H   16.078396   40.662025   34.765305
H   81.882591   54.033470   11.716860
H   67.977112   11.944863   94.278542
H   47.006901   11.594187   38.755154
H   33.379333   12.564968   86.908714
H    7.430425    7.133436   69.149849
H    9.777412   63.344688   67.380310
H   88.576935   30.647657   30.797453
H   26.101906   72.971237   88.323418
H   80.126617   11.471464   79.249153
H   68.579254   46.905235   62.834225
H   62.800758   16.293911   40.606354
H   74.871696   15.482776   15.658098
H    4.229428   59.851082    2.246935
H   56.675838   77.757095   63.510342
H   98.851387   69.972115   25.390083
H   93.680908   52.483334   24.241970
H   42.952343   97.391289   37.748245
H   93.879547   21.490648   48.952393
H   74.794243   68.389648   38.302376
H   91.454865   76.694946   84.790604
H    3.902221   59.599884   68.383072
H    3.558504    4.119552   20.321960
H    3.354734   58.738701   16.759056
H   30.433355   21.480585    7.518472
H   21.138325   76.755104   97.402634
H   31.167351   42.618359   36.099998
H   64.283707    6.581713   90.731331
H   15.017799   53.488510   33.424606
H   17.112251   61.445709   84.955017
H   92.316643   85.336990    9.964746
H   49.817924   21.977144   40.481323
H    9.957333   44.619286   19.147663
H   45.794037   24.909119   53.254192
H   27.820259   75.008537   48.601059
H   55.572594   75.029213   58.550697
H   92.480278   50.412296   84.877853
H   68.028114   51.150497   66.199257
H   14.569488   86.001366   42.369427
H   85.441071   22.649252   56.657658
H   54.116810   43.162731   27.879690
H   47.790634   40.093304    7.791227
H   14.756709   20.233276   57.697105
H   93.262413   33.466858   32.604347
H    7.787100   27.687939   56.195782
H   45.093483   30.023136    6.925137
H    7.247160   73.275902   31.800117
H   67.408775   12.035684   58.072220
H   41.534828   96.345276   17.808186
H   23.828756   40.889683   91.727051
H    0.468291   96.650635   32.832127
H   62.845459   48.534504   72.339699
H   67.197495    2.869639   97.257904
H    1.389910   21.760017    4.966485
H   84.674950   64.987305   12.640785
H   21.686584   48.800423   62.769295
H   59.120579   80.175919   10.162807
H   51.374744    5.355173    2.386121
H   70.143898   97.081024   85.939827
H   98.204941   67.529930   37.579529
H   20.338636   98.462975   66.159065
H   18.293598   33.228043   99.895874
H   54.606201   79.860474   54.290215
H   27.679094   26.725060   77.158760
H   22.837397   82.249672   18.301229
H   27.658958   71.343819   75.037773
H   36.059704   73.364578   27.171017
