100
TIME:    0.464, STEP:   464
H   85.944252   79.470192   98.721207
H   88.363197   29.902054    7.269366
H   87.736603    7.286187   17.891747
H   81.554489   13.533072   14.729453
H   91.015045    9.949166   53.124046
H   20.821205    0.708643   24.696772
H   28.652691   92.668602   26.738176
H   83.416809   28.743938   65.592110
H   42.221992   41.681747   70.880989
H   62.160194   23.048088   25.859476
H   57.094879   84.912674   95.054832
H   38.131329   46.948524   59.900902
H   13.747745   33.634872   79.010735
H   32.107258    3.646648   92.550117
H   86.145973   28.577208   28.467882
H   82.867371   71.153206   94.523911
H   86.761650   12.682053   15.601151
H   11.059875   72.136292   83.460251
H   52.489517   97.817139   87.808289
H   80.089333   95.803467   47.843040
H   36.742126   10.024178   44.648972
H    6.839162   44.712364   79.747200
H   79.548958   90.848534   19.074402
H   75.930893   42.246708   72.614944
H   12.988550   49.375828   39.984940
H   44.531422   13.783967   45.682457
H   22.067156   23.188709    9.173666
H   93.390312   78.097137   82.111954
H   21.260513   91.189934   35.238068
H   18.785353   79.355759   20.275154
H   34.354191   63.651802   72.694817
H   95.054718   39.691429   56.309273
H    3.040711   34.533302   39.597740
H   97.706886   31.199768   52.203392
H   69.238380   23.845474   52.981850
H   12.897996   20.935328   19.047773
H   24.302982   87.542824   45.026623
H   44.811661   50.461697   55.183575
H   29.860126   70.602959   97.653976
H   19.490166   68.745888   74.541374
H    3.533314   72.100502   53.272694
H   89.919487   32.682274   24.599508
H   15.237708   66.282410   34.988518
H   49.729599   20.547613   26.099358
H   16.407265   13.584754   95.812805
H   72.025414   71.926811   85.137871
H   40.979481   50.771976   31.588079
H   56.264194    0.160638   97.287659
H   78.592278   94.021286   25.964430
H   35.621349   37.811771   51.211250
H   43.509220   24.847578   58.309223
H   27.681879   20.682877   43.601768
H   18.504183   24.699158   75.922462
H   65.943420   99.631264   52.291218
H    3.819894   99.181091    4.343401
H   94.146805   12.044302   76.831146
H   25.667549   76.158363    0.117593
H   91.508484   33.067833    1.602987
H   26.871704   58.373840   75.862625
H   28.399551   63.453621   50.412315
H   88.969864   56.991371   78.218170
H   82.442871   23.626511   74.361359
H    5.705193   75.512093    1.725717
H   74.902107   44.318527   14.542059
H   50.739998   23.784927   38.772568
H   72.841133   19.206287   73.621162
H   50.341270   64.401764   89.463730
H   48.314186   44.074203   88.384483
H   80.028404   16.446236   31.131145
H   39.785789   71.482567    0.755042
H    7.297680   63.834080   56.582462
H   35.708271   36.126350   90.593452
H   76.737961   95.356209   49.851673
H   19.977951   20.016527   75.631706
H   84.542892   29.303915   36.572681
H   36.628216   37.310570   64.706985
H    9.082797   86.328239   99.244324
H   53.779892   20.380558   40.065556
H   83.793419   52.143406   22.862221
H   76.770065   83.684334   80.947205
H   19.961941   34.081951    7.721098
H   76.137978   47.257828   47.980164
H   47.154278   15.002063   74.093597
H   82.088959   51.866673   21.048866
H   29.737143   19.859879    2.772940
H   40.613781   26.097336   74.004784
H   98.144218   69.616341   45.668453
H   63.424652   68.145058   90.916267
H   65.312202   68.337395   24.404411
H   25.312309   90.193771   40.799694
H   43.011356   98.486908   43.260571
H   12.618170   30.402906   42.364677
H   15.055077   41.533661   54.811211
H   92.074806   41.377853   58.102680
H   48.569920    8.166637   26.748425
H   32.246109   77.408440   43.482826
H   25.772051   94.308556   10.503853
H    8.568809   20.188354   48.611603
H   86.608269   38.850414    6.185362
H   68.057449   66.786552   52.996323
