100
TIME:    9.690, STEP:  9690
H   62.026764   33.402229   90.274551
H   32.861221   29.950947   89.090446
H   46.333057   71.041405    9.593906
H   83.103043   33.423454    9.020019
H    8.368540   49.453217    2.970942
H   77.756104   90.710197   38.378937
H   45.116665   15.652789   48.223797
H   58.271408   26.910191   18.489662
H   15.429176   54.637985   90.136406
H   10.089018   55.519047   87.123421
H   98.914764   56.139221    6.357407
H   86.000679    9.400105    3.184715
H   25.850632   75.465233   62.141335
H   75.290817   75.208595   94.652687
H   98.300728    4.474251   84.907982
H   11.908676   64.206100   28.686432
H   44.894905   22.889328   55.507278
H    8.282043   23.323326   63.621254
H   96.193817   84.860565   73.871292
H   31.450123    0.035850   76.072868
H   89.257889   91.547676   94.239624
H   91.370087   56.947601   94.085297
H   56.366737   15.821630   55.108536
H   18.716797   52.748749   87.410690
H   83.014877   17.694656    8.098831
H    1.915648   40.442307   79.010139
H   26.499084   39.675175   92.229050
H   14.927887    8.736150   87.072105
H   21.871029   28.244364   99.121292
H   72.550804   51.012070   53.715614
H   97.417122   90.976974   42.737137
H   77.589890   84.787048    2.212256
H   52.908875   59.515778   70.748680
H   87.527267   85.692070   63.527046
H   39.798531   26.000984   14.599759
H   14.972536   44.396557   88.963203
H    9.196427   49.666756   71.999466
H   63.484066   81.623604    6.238401
H   36.054203   70.288536    5.279755
H   50.503307    5.036899    0.423252
H   73.008713   88.670319   70.636681
H   83.593224   79.604263   74.647697
H   94.679291   21.616901    1.392279
H   60.612545   75.295570   28.170132
H   16.112097   49.574680   85.308624
H   53.049164   47.732738   22.528044
H   17.450176   51.816647   18.485823
H   56.779049   95.173859   68.139465
H   48.276840   29.924503   57.937744
H   29.176146   78.228569    6.007594
H   45.237324   34.317337   51.888168
H   76.062912   64.580002   37.948067
H    9.862642   78.194641   40.092499
H   52.290359   49.104988   59.409004
H   69.262611    7.789688   82.755127
H    5.664642    2.340784   62.756317
H   10.556683    9.945560   77.587044
H    4.518876   61.786201   63.963036
H   54.510021   48.208527   67.584923
H   19.579334   72.594513   88.003944
H   70.957031   27.941740   58.893780
H   55.000877   37.748917   56.915085
H   31.923241   46.068565   69.004349
H    8.434425   94.548523   64.059525
H   16.934906   86.918617   97.955727
H    6.077938   60.554985   19.133280
H   10.121410   83.369995   34.896069
H   11.011260   71.718758   29.440643
H   39.850822   53.524734   52.493900
H   26.823837   35.347668   81.291290
H   14.322966   36.089497   45.918404
H   75.318581   29.854881   66.317596
H   75.186157   39.002934   13.296368
H   16.896542   36.140240   27.406279
H   29.247175   42.583256   36.003819
H   54.737755   28.610489   43.914955
H   46.841743   87.106003   62.599884
H   87.225853   17.123741   49.593445
H   26.184439   25.056133   25.798197
H   24.318554   81.158760   86.119148
H    0.513481   29.529856   59.141533
H   68.424614    7.318911   76.337807
H   30.786901   69.169350   52.770344
H   16.806030   41.353836   78.385277
H   80.509323   42.751846    8.417436
H   28.275311   64.986198   14.686385
H   14.328112   98.809898   85.599709
H   11.869879   29.673998   95.111450
H   56.780033   54.648369   48.939095
H    9.612329   10.602173   70.608856
H   20.578054   96.662704   38.097191
H   95.260773   24.259897   18.160326
H    6.601245   18.262457   68.347160
H   81.362892    0.871244   83.869087
H   89.055618   81.758583   38.750618
H   94.275833   13.085001   66.947784
H   93.456017   23.767284   79.907120
H   19.573366   65.920013   84.348473
H   47.103691   78.645958   33.398632
H   41.094154   29.974403   64.272491
