100
TIME:    0.658, STEP:   658
H   72.824623   61.679359   98.543594
H   82.966743   40.420994   19.506590
H   91.069794   21.243046   15.613869
H   81.587051    5.539778    4.095355
H   89.277405   25.499123   47.863762
H   17.812897    0.497497   43.909702
H   18.485126    5.768071   41.909229
H   68.168793   45.526821   47.779205
H   37.453102   23.029495   58.669495
H   56.858467   25.832901   33.456841
H   39.049469   92.718735   76.367058
H   30.726376   56.672798   46.091545
H    1.407663   21.897659   59.728287
H   22.501392    3.048502    7.313374
H   88.505257   11.249009   19.142496
H   75.067230   54.184452   78.420395
H   71.164330   25.511581   33.264015
H   15.205272   62.702118   76.734665
H   55.510406    5.955692   98.029877
H   74.837929   91.736145   61.078117
H   25.229889   90.711090   39.384247
H   25.441273   44.968422   63.229183
H   76.958778   89.270744   13.523443
H   57.906204   44.573429   58.207031
H    6.050576   33.990162   41.417572
H   43.641880    8.003797   27.499212
H    5.338297   15.124330   13.023413
H   77.020378   87.152405   88.523758
H   25.478806    8.791110   26.067833
H   26.223608   74.554306   35.697262
H   41.985600   81.048927   57.343193
H    7.303725   34.331978   38.349709
H   16.706108   20.339727   57.074791
H    5.903957   13.420831   44.030266
H   64.416206    9.180446   64.794647
H   29.765984   36.174999   18.380247
H   42.909657   80.438332   60.313122
H   36.793945   46.910931   68.873573
H   21.138622   66.461632   79.060928
H    1.217574   50.583935   89.804192
H   90.274948   78.758003   57.844730
H   72.483879   41.389717   33.713978
H   16.908575   67.445770   49.000648
H   37.341141   23.798658   45.068123
H   99.579247    5.930774   12.414194
H   69.547722   75.573784   85.898643
H   43.027943   61.237782   33.245796
H   56.274555    2.158096    9.291198
H   84.264030   77.953293   18.225714
H   39.690151   40.764576   37.643150
H   43.494419    6.117620   60.354725
H   37.109795    2.681075   30.865486
H   22.528582   25.824036   64.655922
H   61.451946   96.466805   60.852131
H   88.376205   16.188253    5.989645
H   94.389542   11.840418   70.226929
H   37.965721   70.560616   18.568855
H   77.062683   14.747124   96.606033
H   42.171524   66.570648   60.969532
H   15.598132   78.364227   44.894493
H    1.207392   47.970146   63.091614
H   75.557434   21.820786   65.584351
H   18.864334   62.282936   88.416603
H   88.223030   45.373840    9.274374
H   58.440971    8.290289   56.840179
H   60.923347    9.561939   85.091957
H   34.776512   71.109589   98.829819
H   34.913338   55.169052   97.658806
H   89.696434    2.506640   18.963223
H   43.715462   81.239403    0.347089
H    1.136932   50.633045   54.255741
H   19.712233   29.687904    4.796801
H   64.089005   85.759224   44.877048
H   15.707881    7.739571   64.101707
H   93.897141   29.579954   51.278980
H   41.215054   49.744911   51.653881
H   26.696758   69.514275    2.677251
H   62.894363    7.695334   50.780018
H   93.091423   51.575047   25.025391
H   67.255966   73.119362   64.233887
H   23.758404   36.088970   19.315746
H   90.693306   48.524796   31.756771
H   59.428768   18.239901   92.571198
H   95.433563   68.467506    3.329079
H   20.290388    7.724771   83.966805
H   36.148312   33.223415   87.476677
H   11.101065   55.510963   54.919094
H   66.547668   52.612862   88.900368
H   69.338081   57.535606   22.817001
H    8.160141   82.210098   47.735455
H   50.950626    8.962313   47.357494
H   26.972292   44.993675   46.060493
H   27.501999   47.346024   69.819450
H   10.825445   53.146149   71.183159
H   45.216007   90.789612   31.205753
H   48.269699   69.747429   33.462532
H   10.373669    5.441739   99.346588
H    9.281108   21.840149   45.507828
H   77.366508   39.686672   89.934334
H   80.105484   61.803875   34.311508
