100
TIME:    3.772, STEP:  3772
H   62.237213   76.109741   95.692642
H   96.344475    9.255869   15.936264
H   44.591988   45.276451   79.064888
H   82.109726   77.243462   33.406567
H   61.385590   75.099937   63.430130
H   69.531990   97.121605   52.300331
H   55.278606   16.040462   85.428246
H   23.414536   14.928409   61.862423
H   60.904976   23.631088   62.654415
H   71.762016   70.543694   55.399139
H   49.392776   18.016865   76.410835
H   11.872665   12.761349   24.433687
H    3.326112   33.496277   50.222458
H   68.313622   93.449501   44.291500
H   26.383194   33.096725   69.457253
H   49.860870   81.816093   19.932405
H   20.785469   31.459187   16.768393
H   81.744835   11.268346   68.775085
H    4.018745   36.593803   62.084141
H   90.895256   25.713663   73.147942
H   40.440887   80.703003   54.862679
H   24.005661   49.091370   98.057663
H   35.382393   63.944786   24.429272
H   68.581825   81.920898   26.931591
H   94.676422   87.020737   64.396889
H   29.361166   15.217044   35.621277
H   36.814930   85.679764   74.813637
H   14.271762   32.503906   91.453178
H   93.188919   91.317581   78.868080
H   45.627975   97.482353   83.252014
H   64.509438   60.297199   10.950310
H    3.923657   48.293732   50.071114
H   36.051884   92.505241   37.608505
H   37.478027   28.041359   12.842999
H   87.008926   73.785789   54.415672
H    0.521822   80.796173    7.666578
H   41.582825   66.396957    5.684199
H    8.089478   89.920235   88.621284
H   85.855225   99.233513   78.777580
H    7.913555   59.062050   34.807163
H   77.462479   85.610306   31.212385
H   92.615250   81.148102   80.013260
H   43.731281   86.119507   73.928459
H   38.490814   75.987518   49.539703
H   29.462927   83.067200   78.890808
H   29.423672   34.861927   98.483742
H   71.203415   29.972599   61.673836
H   56.440861   34.220337    1.967934
H   75.287949   20.052872   94.006866
H    4.987605   88.149544   19.846157
H   43.256840    5.480946   93.188187
H   88.445328   13.725498   26.437000
H   87.117897   43.880066   83.797859
H   89.343102   45.663765   98.265289
H   40.461380   89.155701   32.428867
H   98.285843    8.566458   64.219025
H   35.380016   80.707115   14.736156
H   45.185051   20.668793   16.396935
H   87.766609   98.144302   21.904270
H   10.106542   17.716108   56.325935
H   97.640877    3.157716   20.301472
H   65.038963   92.832840   24.682884
H   30.140993   49.888847   74.813103
H    2.055421   62.313248   24.730000
H   82.040184   59.581554   46.839283
H   69.625252   54.755501   69.213882
H   84.933609   78.769287   49.174847
H   19.808113   33.262589   46.526012
H   44.898949   78.754471   23.658916
H    6.807528   37.863220   93.790375
H    2.253546   38.753334   16.900246
H   62.947411   26.339966   32.789585
H   61.050125   31.727627   65.037102
H   47.176235   10.679379   79.034874
H   44.034298   34.016201   87.340858
H   14.828321   49.323166   42.121593
H    9.427744   99.614304   57.758945
H    9.195750    4.078192   22.752855
H   42.393188   42.439175   59.769958
H   14.539440    3.521991   95.960136
H   84.689438   68.304733    5.432828
H   24.341919   68.861588   71.365112
H   56.453503   70.219116   89.164337
H    9.658201   34.937569   18.903366
H   68.664169   12.942991   82.099380
H   64.482727   47.607109    3.722245
H   19.078085   29.097801    3.406807
H   16.672960    3.298922   56.515388
H   33.964462   84.153557   97.340706
H   32.842831   54.086861   59.055252
H   78.388367   77.107933   13.119546
H   57.385551   79.178276    5.399899
H   27.246170   40.696243   10.699076
H   11.805391   42.032593   81.144707
H   91.373878   11.856274    2.764285
H    5.473343   46.778694   72.620171
H   63.198700   84.148064   20.258062
H   20.712164   48.354004   95.679634
H   29.023888   53.109905   29.092331
H   73.503517   81.837166   34.371017
