100
TIME:    0.418, STEP:   418
H   89.055092   83.688637   98.763321
H   89.642769   27.408012    4.367781
H   86.946259    3.976796   18.431862
H   81.546768   15.428389   17.250914
H   91.427063    6.262064   54.371330
H   21.534515    0.758709   20.141237
H   31.063557   89.562675   23.140917
H   87.032318   24.764492   69.815468
H   43.352760   46.104446   73.776344
H   63.417305   22.387772   24.058039
H   61.373688   83.061752   99.485954
H   39.887142   44.642769   63.175285
H   16.673740   36.417923   83.582939
H   34.384937    3.788477   89.049721
H   85.586555   32.685951   30.679056
H   84.716888   75.176521   98.342270
H   90.459984    9.639999   11.412976
H   10.076945   74.373260   85.054977
H   51.773224   95.887604   85.384613
H   81.334511   96.767883   44.704826
H   39.471832   14.603752   45.897308
H    2.428308   44.651649   83.663826
H   80.163124   91.222649   20.390648
H   80.204788   41.695011   76.031113
H   14.633638   53.023975   39.645218
H   44.742344   15.154523   49.993904
H   26.033792   25.100872    8.260839
H   97.271843   75.950012   80.591629
H   20.260300   87.016411   37.412567
H   17.021643   80.494247   16.618408
H   32.544682   59.526711   76.334892
H   92.150238   40.962227   60.567726
H   99.800476   37.898933   35.453697
H   95.763313   35.415405   54.141350
H   70.381783   27.322708   50.180901
H    8.898370   17.321749   19.206053
H   19.890987   89.227394   41.401989
H   46.712769   51.303631   51.937618
H   31.928112   71.584923    2.062774
H   23.822845   73.052071   70.922356
H    6.676792   70.521919   52.188602
H   94.053703   30.617624   22.438345
H   14.841571   66.006561   31.666035
H   52.667068   19.776747   21.601730
H   20.397415   15.399615   91.876526
H   72.612907   71.062065   84.957481
H   40.493763   48.290394   31.195013
H   56.261738   99.686905   94.441437
H   77.247429   97.831223   27.799383
H   34.656582   37.111622   54.428429
H   43.512730   29.288702   57.824207
H   25.446489   24.951332   46.621712
H   17.549944   24.432434   78.593910
H   67.008209    0.381742   50.261311
H    7.481993   95.148651    3.953057
H   94.089249   12.092646   78.397095
H   22.751488   77.485664   95.742622
H   94.933777   37.411919    2.787889
H   23.243912   56.430267   79.393906
H   31.434937   59.917778   51.720665
H   86.068192   59.130424   81.804901
H   84.075500   24.054672   76.442505
H    2.584965   78.648903    4.881539
H   71.743538   44.068298   15.791098
H   48.913994   27.458870   34.488495
H   75.667000   21.493092   70.901283
H   54.031883   62.811512   87.242905
H   51.491707   41.443466   86.185417
H   77.735985   19.751503   34.016323
H   38.854012   69.169090    0.851774
H    8.758497   66.963890   57.134159
H   39.501011   37.652992   87.225716
H   79.737198   97.631783   51.031223
H   20.990448   22.927500   78.365623
H   82.324875   29.238462   33.085621
H   35.540615   34.362221   67.802383
H    4.906259   90.315056   98.430115
H   51.618729   23.388393   37.525013
H   81.588737   52.277920   22.349304
H   79.025986   86.189430   84.910156
H   19.061749   33.606060    4.971827
H   72.686714   46.957413   51.826950
H   44.243832   14.234267   69.712311
H   78.924774   47.930393   25.250465
H   31.977095   22.737335    7.232057
H   41.672604   24.407677   70.810417
H   95.071983   72.960915   43.475002
H   62.684143   71.827950   91.394264
H   64.357613   70.898643   24.780807
H   29.379318   92.086807   39.155132
H   41.128849   96.002869   42.289135
H    9.214548   26.943396   41.488350
H   12.103745   40.155472   51.252556
H   87.628944   38.587433   55.001316
H   49.365177   12.287167   25.691532
H   28.446701   79.224968   45.858772
H   29.423182   91.668694   13.149418
H    8.399913   19.796692   49.347549
H   88.799614   38.652126   10.038486
H   65.200699   67.967857   57.426743
