100
TIME:    0.147, STEP:   147
H    7.381688    8.540683   99.011429
H   97.181114   12.714855   87.273254
H   82.290100   84.479774   21.613846
H   81.501282   26.594278   32.105347
H   93.854385   84.540222   61.719460
H   25.736843    1.053660   93.303154
H   45.265736   71.264717    1.948097
H    8.332388    1.320097   94.696556
H   50.014458   72.159912   90.833763
H   70.823326   18.497646   13.445223
H   86.581451   72.157410   25.590015
H   50.231174   31.058861   82.465675
H   33.911957   52.813721   10.518641
H   47.803440    4.624032   68.427818
H   82.290855   56.890945   43.706684
H   95.612854   98.879265   20.837360
H   12.247627   91.718452   86.738899
H    4.286045   87.551926   94.449997
H   47.553322   84.520126   71.106003
H   88.670235    2.450003   26.216654
H   55.553360   41.583420   53.251640
H   76.443092   44.293961    6.738393
H   83.781364   93.426674   28.145054
H    5.383659   38.444798   96.156799
H   24.325354   74.515312   37.643814
H   45.981724   23.232571   75.392906
H   49.403225   36.366405    2.883346
H   20.137390   63.300640   71.634933
H   14.367593   62.428921   50.223206
H    6.630624   87.201431   95.075096
H   21.884310   35.224541   97.779686
H   75.039062   48.448883   85.655571
H   80.712708   57.726891   11.039876
H   84.313133   60.251007   65.558449
H   77.117912   47.808151   33.679657
H   85.336021   96.033257   20.138525
H   93.898521   99.151604   20.048096
H   57.912773   56.263721   32.814701
H   44.112270   77.369972   28.037376
H   49.347279   98.421104   49.600220
H   25.195980   61.222622   45.801891
H   18.409653   18.454134    9.706529
H   12.507806   64.381454   12.091457
H   69.972595   15.235337   95.104630
H   43.904083   26.092003   68.686707
H   76.074013   65.967583   83.894753
H   37.632252   33.670635   28.879339
H   56.247265   96.895691   77.673477
H   69.324516   20.274921   38.610283
H   28.972845   32.986828   73.382828
H   43.530483   55.452576   54.971851
H   12.277127   50.098846   64.413071
H   11.928606   22.861084   94.332222
H   73.281204    4.803753   38.302509
H   29.056839   71.392319    1.653536
H   93.750168   12.377750   87.622574
H    5.571770   85.305199   69.968346
H   15.113707   63.004250    9.768509
H    1.871470   44.980087    0.197767
H   49.320213   39.087006   59.423538
H   68.973557   71.733505    2.935201
H   93.693817   26.577103   88.703171
H   84.204094   97.128807   23.473358
H   53.134239   42.594124   23.149565
H   38.156448   49.104000    9.250649
H   92.315041   34.965351   54.877651
H   75.774406   53.443371   74.159348
H   70.211449   25.944588   73.230049
H   64.230644   39.223839   51.013783
H   33.364624   55.538414    1.421646
H   17.364740   85.402443   60.384373
H   61.845196   46.646904   67.385353
H   97.406616   11.036175   57.980312
H   26.955376   40.077412   94.471962
H   69.257858   28.852861   12.541392
H   29.133230   16.993494   86.038315
H   80.301971   13.803150   93.633362
H   38.886658   41.108433   22.558159
H   68.600288   53.069798   19.327557
H   92.316299    0.947792    8.257002
H   13.758661   30.802000   88.774704
H   52.353474   45.187576   74.488586
H   27.097214    9.710950   43.900818
H   60.283188   24.740574   50.003365
H   45.172844   39.689804   33.502174
H   47.913700   14.450126   51.992496
H   76.972511   92.664818   30.552715
H   58.321579   93.524986   94.210289
H   58.733833   85.987740   26.998272
H   53.338387    3.238691   29.466787
H   30.038424   81.368637   36.566113
H   89.163139    6.562364   36.325638
H   94.716209   32.036140   30.287352
H   61.436813   22.148836   36.730236
H   54.050282   36.562458   19.465057
H    6.063210   89.926689   59.856194
H   50.934013   76.116463   28.734825
H    7.405051   17.489288   53.683235
H    1.709425   37.483952   32.738293
H   48.370708   74.927284   83.527695
