100
TIME:    1.803, STEP:  1803
H   95.393219   56.677017   97.495316
H   51.116539    2.500104   91.732994
H   10.746794    3.619541    2.170175
H   81.779236   58.366722   41.334850
H   79.021744   17.275913   16.818062
H    0.057277   99.254768   57.303555
H   58.473759   83.084953   31.449806
H   78.174049   44.583897   42.648895
H    9.306816   12.942383   86.594673
H   25.568243   42.271767   78.294182
H   32.544357   38.789982   66.074478
H   87.024521   14.065536   64.589500
H   28.573914   52.623421   45.925148
H   65.807594   99.518501   94.448494
H    2.430547    8.976164   64.105728
H   29.030319   54.033302   83.376724
H   79.108963    1.232260   37.513496
H   39.673775    7.020709   37.039841
H   73.344460   53.993019   58.349987
H   43.941490   67.523056   39.089241
H   57.284058   76.723389    8.308186
H   35.231327   46.479691   65.733864
H   61.671379   79.958534   80.763824
H   51.523293   58.305882   73.168503
H   65.098259   43.179535   49.864952
H   38.391750   73.883667   20.177404
H    6.603695   67.530533   35.744854
H   80.409714   40.597652   26.369486
H   50.375427   12.674428   71.943657
H   70.128441   46.215836   26.721592
H   87.026649   83.729111   66.738434
H   79.599762    2.699430   32.351311
H   97.357986   36.565742   60.225433
H   54.282478    8.488537   95.794281
H   35.955437   22.627327   34.518349
H   29.318893   26.118666   14.441548
H   52.729660   38.507179   50.534611
H   89.470222   25.954090   49.673359
H   69.665787   42.019264   69.318771
H   93.371117   43.392597   79.890945
H   12.026741   18.048769   84.822433
H   69.577820   92.776695   87.508148
H   26.771132   74.311996   31.706268
H   64.225487   42.989029   57.021099
H    0.259062   60.751408   10.397516
H   54.826344   97.306252   90.491890
H   55.118092   23.002092   43.029732
H   56.335705   13.946951   80.137367
H   17.734655   83.124840   72.553238
H   63.704472   58.192211   57.559383
H   43.407063   95.575142   72.427399
H   92.755928   96.433853   55.699429
H   46.280830   32.463135   98.153770
H   34.939228   77.789970   11.378218
H   97.222580   16.565222   15.705879
H   95.822189   10.637081   31.248428
H   10.554937   37.522362   27.467855
H   91.802094    6.616261   67.114456
H   32.475517   14.949431   73.066879
H   40.038921   66.373581   12.328212
H   73.435226   94.724800   73.818993
H   34.919159   11.162292   13.773532
H   96.528656   84.201958    9.865407
H   66.849365   51.602364   78.190300
H    3.885342   16.841152   63.472080
H   90.584236   52.640541   52.792782
H   42.910843   10.698026   54.111462
H   55.820259   20.652809   52.396427
H   46.764412   20.234238   47.152222
H   66.909729   38.828773   97.936523
H   64.779015   72.724571   40.523289
H   25.301809   91.686874   88.628960
H   89.432297   29.122608   15.516506
H   90.510094   35.281982   96.050911
H   49.100769   31.209154   38.077984
H   68.285469   23.127611   74.609795
H   30.655336   70.275864   22.935350
H   16.688549   32.826584   14.012080
H   47.976295   48.220554   37.794533
H   11.102974   10.758272   65.591133
H   46.165363   47.934521   87.750069
H   76.604645   56.002518   36.012161
H   31.878559   37.350372    1.626806
H   74.200996   66.446632   98.745789
H   64.538345   36.105713   72.971848
H    9.792835   75.283257   66.989037
H   87.573006   72.260132    9.517210
H   84.979904   60.942032   77.000282
H   93.099068   93.784462   13.448605
H    6.928576   35.095329   88.670738
H   97.808693   70.787140   71.537796
H   11.690916   31.108210   67.874977
H    0.968552   81.655441   58.400192
H   21.494274   22.597506   48.385124
H   25.419556   88.227631   57.517418
H   42.842010   24.532393   74.321579
H   19.488747   71.150993   33.497208
H   13.485143   31.589142   27.188007
H   22.821804   44.622318   94.022568
H   51.213760   32.390919   24.031246
