100
TIME:    4.780, STEP:  4780
H   94.070961   83.671028   94.769791
H   68.463387   63.886734   79.500610
H   61.918526   17.796284   67.237007
H   82.278915   35.715141   78.155647
H   52.357025   55.895584   36.098343
H   53.900066   96.029564   52.126095
H    2.451286   84.106186   64.255234
H   44.187721    2.133426   69.310982
H   36.126411   26.715988   99.202232
H   44.214897   85.017082   94.868103
H   55.631073   58.576191   79.315292
H   73.402794   63.287346   52.683205
H   39.045364   72.534065   50.057129
H   18.403782   90.342567   20.999895
H   38.643501   43.058289   21.001595
H    9.330154   93.652664   36.259705
H   39.728035   98.131454    8.530607
H    3.285110   62.237545   33.826122
H   19.718513   78.880768   15.191881
H   63.732735    4.307352   41.777229
H   80.624748   80.353424   27.507187
H   20.643600   50.429504   12.217087
H   21.924141   55.746788   95.587967
H   74.927689   94.010254   52.069283
H   58.623688    7.080933   71.841225
H   24.756384   85.347717   40.928577
H   49.894585   43.778591   94.808754
H   29.219604   79.553955   24.772913
H   15.107884   82.771141   31.218243
H   84.280075   72.534599   63.384834
H    4.177242   50.686909   31.200554
H   67.569344   20.446686   56.755501
H    7.053526   18.754713   28.417105
H   80.067627   35.664185   70.377464
H   61.953506   97.588608   15.797516
H   88.155136   59.818836    4.399402
H   38.263275   29.482632   85.110703
H   66.423866   71.478584   59.751629
H   43.308025   77.269646   81.094940
H   12.971220   64.696648   14.114397
H    8.572918   20.197554   54.960430
H    2.021359   26.386389   27.368395
H   52.413776   92.164185   46.737885
H   74.123734   92.875702   48.098732
H   42.025974   43.296303   65.148094
H   16.419155   54.088001    2.579068
H   79.078415   84.790123   71.350243
H   56.494694   44.602417   64.337242
H    4.756577   36.569881   53.799347
H   26.128597    3.486006   49.343987
H   43.179935    8.165112    3.815674
H   37.430855   20.190729   60.265129
H    8.022969   49.724792   25.253660
H   65.994957   29.213936   42.743980
H   60.204346   77.497810   41.003696
H   99.547073    7.505627   29.904327
H   99.284042   51.621910   10.605276
H   70.126846   25.475801   90.432724
H   67.264091   40.736237   44.520134
H   43.587566   95.194092   27.656013
H   61.226807   56.278515   41.709068
H   29.263380   83.450516   79.075012
H   98.574135   81.104294    5.691521
H   71.274574   67.801849   97.360504
H   22.048098   79.073883   40.709980
H    7.702789    4.645082   28.814230
H    4.059768   13.620275   97.839890
H   50.178520   90.910049   94.714241
H   95.135757    6.326004   60.440727
H   27.229464   88.562500   91.667816
H   70.245842   70.168732    4.807299
H   79.833893   92.885895    6.590571
H   95.325928   81.867775   39.189873
H   24.982143   46.892124   19.142044
H   92.634651   35.454311   63.754482
H   38.660866   13.925470   74.295334
H    0.947539   12.247334   75.585365
H   56.553417   38.167919   78.421883
H   90.731789   39.478359   71.016258
H   65.104950   48.625278    9.119957
H    4.409182   78.732956   65.678291
H   99.973640   75.444595   87.076561
H   20.219873   87.057800   85.166901
H   79.005707   21.194021   26.837959
H   19.582872   49.893913   84.385078
H   41.280857   84.632240   73.720871
H   86.400108   55.807983   51.472412
H   32.896133   22.596098   46.033333
H   54.882431   28.029074   89.096565
H   43.722599   12.612373   95.091553
H   19.640007   31.538460   34.406658
H   31.970491   54.980820   24.607168
H   91.860878   70.944466   88.649277
H    9.232404    3.174496   49.108868
H   73.947365   21.566078   25.925114
H   88.729965    6.975037   20.555962
H   83.188622   41.994946   62.286789
H   24.411261   56.936523   79.545113
H   81.005005   57.454998   44.662384
H   36.114933   55.968952   37.267765
