100
TIME:    1.949, STEP:  1949
H   85.519684   43.288040   97.361649
H   47.055290   10.416071    0.942627
H   13.256392   14.122985    0.456205
H   81.803741   52.351707   33.331539
H   77.714035   28.978458   12.859627
H   97.793831   99.096596   71.762383
H   50.822437   92.942894   42.867195
H   66.698738   57.214314   29.243210
H    5.717857   98.904877   77.405067
H   21.578840   44.368111   84.010674
H   18.963791   44.664646   52.011433
H   81.452835   21.383730   54.196892
H   19.286842   43.790260   31.414459
H   58.578438   99.068489    5.558987
H    4.206569   95.934998   57.087112
H   23.160110   41.262535   71.257584
H   67.370773   10.887489   50.805565
H   42.793785   99.920586   31.978313
H   75.619026   60.118309   66.041702
H   40.008339   64.421982   49.029610
H   48.620209   62.189190    4.345516
H   49.230717   46.672394   53.301872
H   59.722069   78.771126   76.586731
H   37.958321   60.056919   62.325706
H   59.876335   31.600632   50.942085
H   37.722301   69.532806    6.492867
H   94.014183   61.461582   38.642086
H   68.090073   47.412441   31.195421
H   53.550018   25.920340   65.041985
H   75.726860   42.602371   38.328091
H   92.769875   96.821793   55.186001
H   88.818329   98.665565   18.835350
H    7.642050   25.883842   73.378265
H   60.451210   95.108627   89.643372
H   32.326378   11.590777   43.408318
H   42.012920   37.588123   13.939740
H   66.732605   33.160500   62.038883
H   83.435158   23.281864   59.975742
H   63.102585   38.902596   55.325371
H   79.619011   29.724127   91.377396
H    2.049614   23.058496   88.262131
H   56.456177   99.328606   94.367493
H   28.028715   75.187515   42.251495
H   54.902214   45.436249   71.296188
H   87.594124   54.991474   22.891481
H   52.942753    0.090980   91.084480
H   56.659718   30.878420   44.277290
H   56.343502   15.450148   89.171028
H   22.001974   71.032433   66.729813
H   66.765556   60.414425   47.348339
H   43.395924   81.479958   73.966797
H   99.851418   82.886703   46.114391
H   49.309502   33.309692   89.674828
H   31.558567   75.408470   17.820410
H   85.600235   29.364393   16.944593
H   96.004868   10.483643   26.278244
H   19.810427   33.309624   41.353630
H   80.930511   92.828308   63.353958
H   43.989815   21.118673   61.858688
H   30.404873   77.594925    8.175902
H   82.644882   87.934517   62.435177
H   29.737579    9.803066    7.167302
H    6.431669   74.245995   99.849045
H   76.874390   52.396568   74.227074
H    9.680461    5.180153   77.068283
H   81.615181   45.382423   61.425442
H   31.197119   15.745347   61.160168
H   45.735085   29.003098   59.376072
H   54.041466    9.743607   37.994919
H   69.868225   46.172661   97.629089
H   60.142998   62.790749   38.772251
H   13.263490   86.841446   99.317863
H   79.912979   21.901249   11.772717
H   87.297630   26.042612   87.373695
H   56.139450   31.416895   49.145611
H   71.736305   32.484886   64.785271
H   43.911705   57.621490   25.517908
H   23.547894   23.279928   22.075474
H   54.974876   47.792820   39.423042
H    3.942679    2.806746   53.013069
H   49.022495   49.444958   96.476295
H   87.558655   56.956009   23.803534
H   41.116062   39.787567   15.532362
H   84.243843   78.940041   85.410278
H   57.429489   26.972916   58.818741
H    6.432290   80.645531   77.127678
H   97.324013   61.644745   16.479292
H   87.330215   49.252853   75.480934
H   96.128853   85.655281   12.254234
H   94.020370   29.088112   93.890434
H    3.783684   78.671265   74.621048
H   22.493559   42.088894   70.657478
H   10.335842   86.030807   69.695053
H   35.606167   31.453501   58.228584
H   22.894920   75.150543   60.872459
H   54.901001   18.767447   66.780533
H    7.900180   79.529686   25.100693
H   14.021203   32.832245   24.851620
H   15.867216   45.251667   81.792038
H   60.280838   28.640945    9.969042
