100
TIME:    6.902, STEP:  6902
H   50.567947   89.074501   92.827042
H    9.860184   78.873695   13.298049
H   98.408905   70.461555   42.323353
H   82.635086   48.288483   61.842228
H   33.350464   25.983076   78.564026
H   20.986660   93.730644   62.275272
H   91.236557   27.393566   30.198542
H   77.402702   85.712646   74.475655
H   83.963539   22.694351   65.631935
H   86.241371   15.487421   77.958961
H   58.247803   43.959400   74.913353
H   92.409775   69.652252    1.637659
H    3.635788   44.210964   39.204033
H   13.335602   83.801979   82.485420
H   64.437691   53.512169   18.985943
H   24.009586    8.054857   60.114746
H   69.089302   38.484142    1.704632
H   48.663548   58.987701   60.265022
H   52.764446   67.902512   26.986225
H    6.567345   59.238079   86.252892
H   54.702255   69.102142   69.908562
H   24.081802   53.246490   31.509201
H   93.590553   38.488701   34.877060
H   77.763115   19.396212   94.470688
H   82.729561   38.797211   87.512733
H   15.063747   22.629547   41.374077
H   66.912727   55.570549   36.914684
H   50.170547   78.601738   94.915207
H   61.248253   75.295509   30.910093
H   65.646439   20.015617   32.077293
H   87.692543   40.971230   63.314735
H    1.553866   61.813473   60.311348
H   56.525562   63.499138   19.583624
H   69.727669   41.195541   80.981384
H    9.184139   37.091774   44.975319
H   72.616783   26.023239   97.726753
H   41.790543   51.769653   52.315891
H   78.719337   32.642910    9.497230
H   53.738194   31.032389   75.457352
H   13.102539   66.042084   81.069931
H   63.548752   93.008522    4.953498
H   18.551147   68.669342   32.319820
H   70.685883    4.890987    0.013573
H   38.627285   28.492453   55.575966
H   57.957558   59.572315   46.733219
H   89.032799   94.561935   11.201368
H   95.656540    0.191553   91.716728
H   56.608883   66.458344   95.634598
H   66.779671   60.825283   69.152298
H   70.648193   35.786289    0.943558
H   43.027668    3.299628   26.183777
H   40.564449   23.284691   20.963112
H   52.041691   62.028870    2.010739
H   16.858940   94.588821   36.381729
H   91.247055   63.464241   59.055073
H    2.192192    5.273489   57.666428
H   33.808598   90.391945   12.425167
H   12.118749   25.078951   35.776718
H   34.622948   30.399044   81.617592
H    3.558950   58.299847   67.301292
H   95.083672   57.595184   76.261185
H   53.952461   63.699234   83.060577
H   42.637470   36.303383   60.179596
H   16.987244   79.361206   39.751179
H    6.274127    9.592598   38.322559
H   77.346741   99.154594   54.283951
H   33.808578   86.982208    0.289952
H    3.597321   12.269858   96.158112
H    0.895471   53.852631   27.351070
H   70.216026   95.291924   87.199493
H    2.861980   25.789658   79.356026
H    4.885549   22.450306   61.963936
H   56.968033   76.907104   84.781311
H   78.267601   12.592270   93.060669
H   94.944695   38.481762   24.616756
H   88.824348   49.926937   31.512751
H   93.631439   28.414974   13.149439
H   56.248837   99.414894   95.610420
H   92.489799   33.245373   94.685417
H   61.044357   33.035561   26.307610
H   45.934486    0.686177   92.505859
H   59.216347   89.231247    9.583447
H   54.443176   22.543859   87.254807
H   24.996586    2.777922   33.026020
H   16.259260   17.160431   78.680931
H   92.439743   62.578529   21.079208
H   28.123766    1.520862   52.657387
H   67.032158   52.769558   24.014862
H   98.918076    9.880266   71.741341
H   56.109928   25.308666   70.945007
H    6.481002   46.119354   79.219406
H   88.977005   14.575877   65.032951
H   27.884861   34.613796   52.746834
H   14.318633   31.909143   92.190308
H   37.261787   31.490562   74.687103
H   63.998489   23.179106   10.951763
H   14.754240   63.771332   40.249237
H   24.954866   27.970695   40.323845
H   79.917778   66.606712   66.923363
H   67.919640    1.519116   32.848904
