100
TIME:    9.511, STEP:  9511
H   74.131989   49.817482   90.438431
H   37.804916   20.250652   77.804619
H   43.256222   58.163216   11.695318
H   83.072998   40.798027   18.831858
H    9.972509   35.105576    7.824162
H   80.531128   90.904121   20.651722
H   54.497395    3.565321   34.225765
H   72.340454   11.424852   34.925400
H   19.829338   71.848053    1.403215
H   14.978769   52.948872   80.114845
H   15.564972   48.936722   23.599585
H   92.831718    0.428076   15.925720
H   37.264832   86.300392   79.930298
H   84.153961   75.760323   81.031578
H   96.126595   20.463417   93.517113
H   19.106396   79.862045   43.544983
H   59.288979   11.050264   39.212204
H    4.454093   32.033516   69.826736
H   93.405136   77.352158   64.436264
H   36.272274    3.837152   63.885704
H   99.880005    9.367371   99.098648
H   74.209183   56.709976    9.328735
H   58.756645   17.276785   60.229767
H   35.348644   50.607391    0.704090
H   89.417099   31.890709    6.777553
H    2.760054   45.719223   95.854210
H   41.934914   47.116665   88.678329
H   30.031397    0.381041   81.156059
H   17.978893   12.004515    7.582461
H   65.686989   55.442276   39.485420
H   90.373039   74.924988   56.899048
H   66.287674   89.733475   18.783134
H   40.299721   72.612473   54.622948
H   79.964233    2.096369   71.068230
H   44.253319   39.553810    3.708884
H   99.412842   30.375387   89.525856
H   92.027771   56.221931   57.894917
H   70.883125   84.898460   93.606621
H   43.610409   74.188866   22.625706
H   67.362671   21.794708   86.340530
H   85.242310   82.527573   66.419518
H   98.678459   78.900558   65.512657
H   93.138824   20.542809   88.462303
H   72.040810   72.291115   10.669177
H   31.647436   56.650013   69.996048
H   55.358498   44.318584   21.800829
H   16.050373   42.080845   16.767138
H   56.768124   93.330215   57.063953
H   43.044991   44.748760   65.078583
H   25.419210   75.502708   18.523445
H   44.240391   51.523308   51.552216
H   67.363647   81.189178   49.698219
H    6.149750   77.156738   50.489281
H   56.435143   52.026138   51.510017
H   83.514656   92.103195   81.233780
H    5.441698    2.529075   68.849899
H   99.209015   15.110834   60.562706
H   17.847345   78.690361   68.573509
H   40.391811   40.644127   81.326210
H   31.390942   58.836323   93.095131
H   59.665218   36.265781   72.848610
H   61.353935   39.415024   65.014656
H   19.762051   58.269554   81.272644
H   96.142883   93.573441   68.918549
H    9.830050    1.214476   81.286461
H   17.073841   69.453636    8.549161
H   24.483391   77.180817   26.253708
H   23.376099   61.481758   20.883408
H   30.928957   66.386536   63.721004
H   23.188446   26.357515   81.670944
H   20.007633   48.269833   48.065224
H   90.059532   35.798241   53.197445
H   86.857101   47.856518   17.886356
H   20.836475   47.468403   38.041756
H   20.625071   42.319683   22.431875
H   50.505569   17.138248   55.958725
H   30.584846    2.598284   59.424721
H   78.816109   28.827461   39.707420
H   17.601255   25.581913   23.800234
H   33.096428   90.909584    1.540172
H   97.009239   27.678019   48.442940
H   54.992882    6.156903   91.313652
H   19.464884   66.175819   35.722790
H    4.491178   26.036308   94.734978
H   89.224976   53.948906   25.768999
H   32.395512   58.410744    2.255804
H    2.373041   11.824880   77.064323
H    8.991405   43.997169   96.966019
H   53.065434   64.614967   50.403084
H   25.438437   17.967186   64.209366
H   13.252518   86.996552   34.317039
H   82.016586   10.797756   14.750268
H   95.127060   12.891310   54.504814
H   65.073280   90.087936   70.247978
H   92.150208   97.791451   34.637245
H   79.491180   20.153124   76.193314
H    7.664170   13.495378   90.201477
H   19.918879   57.063404   87.942894
H   55.630882   77.872993   48.392231
H   29.976303   34.567425   81.515335
