100
TIME:    7.365, STEP:  7365
H   19.257387   46.614937   92.403152
H   97.074020    3.961355   42.492283
H    6.368480    3.772000   36.886974
H   82.712799   29.213211   36.461864
H   29.202223   63.094570   66.009842
H   13.805541   93.229042    8.126415
H   66.968903   58.658924   66.405746
H   41.011818   25.768192   31.963974
H   72.582115   78.178619   36.486217
H   73.595345   22.135485   96.087288
H   15.180664   62.589329   30.315752
H   74.740662   92.860184   68.680351
H   74.108086   16.192120   93.193336
H   90.410805   82.374886   17.719425
H   70.061287   12.154716   96.720490
H    5.392083   67.559143   21.681654
H   31.857704   69.107193   43.853359
H   58.564892   36.457993   44.217285
H   59.974094   87.323700   51.377514
H   94.092728   49.407383   17.776011
H   27.227173   23.008118   57.342121
H   68.470062   53.861130   92.080521
H   87.408836   34.723152   21.629141
H   34.743027   24.935030   60.085808
H   66.169624    2.077812   90.932106
H   12.880718    8.982082   97.802971
H   26.986380   36.322449   46.102482
H   11.104795    0.213019   10.219373
H   71.315620   17.302519    9.025049
H   83.400330    8.555906   68.885002
H    5.913534   82.489212   26.683647
H   30.787746   49.022617   17.449089
H   89.137581   29.623453   61.294319
H   89.290154   98.764503   61.475418
H   97.661003    2.036203   73.145142
H   12.864697   62.287247   96.271400
H   86.198227   34.814087   88.798615
H   59.581558   24.168659   42.168488
H   34.193371   20.945593   30.588741
H   69.491966   22.696428   17.496988
H   31.905432    8.895505   15.860697
H   79.531807   70.485001   55.955173
H   74.670441    7.668344   33.455318
H    9.064341   36.263756    0.846630
H   17.796967   41.306225   86.352730
H   83.055962    3.392389   13.082376
H   99.273727   25.372223   96.160500
H   56.637142   71.227097   24.281979
H   80.315865   22.480976   50.682312
H   80.369385   42.833447   68.572487
H   42.995876   58.600403   31.063801
H   63.067623   80.321747   90.570251
H   61.646313   64.713501   75.121895
H    6.138077   87.036530   56.813187
H   54.382828    4.037807   62.993710
H    2.768858    4.786458   41.904816
H   63.159389   77.032372   56.460258
H   77.642746   81.353844   23.850096
H   71.136772   49.965061   46.074486
H   73.003914   93.885910   54.132469
H   24.290621   36.065147   40.162292
H   37.519691   59.389694   62.113068
H   74.071251    4.708301   28.430298
H   48.781628   81.883347   27.179333
H   24.651531   72.614777   81.439156
H   48.903778   76.137413   81.660126
H   96.660309    2.990669   22.644690
H   71.614784   38.750114   18.292191
H   23.972237   20.584396   98.311798
H   79.604088   18.570086   86.222549
H   88.159859   94.287186   73.803078
H   66.776649    7.052539   95.898262
H   26.779753   54.008480   72.912415
H   68.073067   83.288269   65.550262
H   17.250757   39.159756   59.720936
H   99.767754   79.600853    0.359020
H   35.682331   88.340889   21.360525
H   78.001419   69.142143   21.180475
H   14.692657   31.885395   99.849800
H   38.338028    7.812746   86.419930
H   54.996941    5.476663   20.178879
H   93.960640   92.233795   70.847557
H   83.728004   30.286901   31.348549
H   56.848713   42.398434   90.738518
H   93.715424   88.196312   33.798134
H   81.785995   79.583847   53.231201
H   59.046482   67.856972   74.734947
H   74.478477   15.718889   19.214317
H    8.527429   84.101112   67.954597
H   15.173541    6.258381   87.497879
H   25.428883   71.119225   88.997116
H   23.234316   49.397522   73.856911
H   57.564167   48.506763   88.551338
H   59.064331   59.998863   23.409403
H   29.256741   90.017471   85.326721
H    2.240381    4.896658   87.036949
H   78.003410   90.342117   13.620791
H   24.061167   50.878681   31.029890
H   57.861412   68.606056   28.141300
H   96.680519   89.636368   88.246353
