200
TIME:    0.955, STEP:   955
H   31.441439   60.102062   27.565634
H   34.336609   43.316341   18.923925
H    3.151871    0.433574   80.565788
H   41.943573   85.330849   25.802624
H    7.618788    1.850858   43.378521
H   66.358398   33.408772   44.386494
H   13.718299   54.796814   63.490742
H   18.911377   19.760059   99.693237
H   16.464664   76.787117   30.276865
H   85.691833   64.881927   67.870018
H   37.115028    9.867757   15.556343
H   33.734421   61.107220   46.810879
H   28.722965   10.738325   31.987328
H   70.609497   56.223560   76.719688
H   85.102005   77.448700   41.219349
H    8.459743   96.506882   38.898945
H   17.852308   41.203232   80.728363
H   19.584436   17.540110   30.791214
H   88.814751    3.816763   53.009289
H   92.330994   69.885643    9.753626
H   66.665817   12.450029   93.083412
H   74.111290   76.144005   43.021400
H   73.594269   57.342827   31.980181
H   23.752722   94.577927   89.344070
H   34.323921   41.460171   19.897236
H   18.069223   94.067970   83.341782
H   12.742313   73.143456   77.829803
H   10.919913   99.624710    2.612622
H   41.183014   34.796944   34.151638
H   60.739079   39.918839   73.892853
H   12.428002   81.320930   17.068979
H   18.924019   80.264145   11.207017
H    9.847260   24.370361   81.912636
H   72.762688   64.357986   50.787743
H   13.675698   60.256985   28.779629
H    9.694785   33.621552   87.663170
H    6.785988   58.996758   91.322670
H   97.548485   63.250549   83.020363
H   26.607964   20.798090   60.324825
H   83.225792   36.748234   35.766693
H   80.717056   71.822914   25.256657
H   48.927841   28.113419   18.629354
H   63.828056   71.356873   76.877853
H   35.688400   97.960533   44.319435
H   53.207119   98.109764   70.166145
H   30.997875   95.230896   50.464005
H   93.448044   91.181870   11.854831
H   72.708862   65.539696   21.943619
H   14.731948    1.619254   61.681831
H   36.530640   21.028147   75.464027
H   61.199493   61.446243   99.532982
H   93.806770   48.004498   78.913963
H   71.462730   73.975487   17.269819
H   11.764947   97.272278   92.291351
H   46.934464   60.483559   67.649536
H   96.140434   54.734371    2.061347
H    3.390018   19.451149   41.984837
H   75.220261   75.200829   92.397560
H   13.093948   88.289566   24.419239
H   26.566406   91.974281   53.776726
H   48.103863    1.426595   21.345819
H    2.787009   18.118666   54.547821
H   91.145378   40.017464   60.762466
H   41.450554   66.172424   19.631519
H   82.842094   86.738174   47.167835
H   10.691822   44.338829   45.715317
H   59.467384    8.079870    0.607296
H   93.337440   93.075523    1.427448
H   41.954605   15.515447   52.929932
H   41.121155   54.091972   50.944408
H   58.151501   88.958656   92.406631
H   12.045580    5.028279   39.759850
H    0.186676   38.024166   75.553688
H   31.159412   93.248627   81.388527
H   87.851242   12.445764   33.993446
H   71.386230   93.834503   58.205250
H   92.405502   56.567951   62.031441
H    0.072829   18.989700   23.518150
H   16.971542   61.541801   19.085903
H   57.500786   86.679329   60.353241
H   73.714355   18.017822   90.518417
H   58.076218   55.731018   65.753502
H    8.210154   21.509251   69.359726
H    1.358057   85.239799   17.154734
H   13.446926    6.884732   37.519535
H   44.810360   60.757614   12.898950
H   67.900383    4.274011    3.410544
H   69.385521   91.933426   38.410107
H   87.570908   73.797447   79.745667
H   19.862911   18.096489   46.999371
H   11.271066   41.065147   77.574211
H   79.074997   94.808731   13.969028
H   81.226738    8.798220   75.366249
H   27.965832   68.745972   88.737274
H   43.241531   47.254456   97.718719
H   39.662239   43.695225   95.443817
H   89.004616   89.547615   29.122513
H   98.927460   41.563732   57.789494
H   20.816505   62.615593   55.415104
H   79.636414    9.545114   27.424967
H   41.767056    0.195391    2.608306
H   17.158775   87.473869   61.920624
H   38.000679   11.039455   40.493912
H   56.232002   69.259598   18.556643
H   24.390930   18.076466   48.268631
H   15.730034   91.766991   10.415291
H   87.840744   36.959408   50.505417
H   60.537682   61.726749   91.094337
H   90.967224   31.064327   33.706486
H   27.335081   18.091345    9.036657
H   56.601719   89.853516    1.298906
H   14.702689   81.325134   98.655502
H   44.675694   88.571739   78.383118
H   60.802147    3.982921   56.517132
H   39.990013   11.741760    1.702376
H   84.859299   84.882042   11.190207
H    3.177560   18.510796   92.515366
H   37.143528   62.189522   19.686363
H   46.015347   84.557747   48.203278
H   89.651535   60.945187   76.016296
H   48.017036   26.510754   64.090530
H   87.439445   10.542202   69.219307
H   49.474251   91.666885   45.240471
H   93.543358   41.589886   86.553917
H   55.521797   91.249756   69.165634
H   73.916191   81.915596   11.726603
H   77.614189   52.528397   43.441467
H   59.789139   93.177727   41.041279
H    1.266707   26.602341   68.596130
H    2.400906   20.760416   78.682663
H   77.471451   59.656219   30.735523
H   54.255814   93.142899   26.188442
H   90.103004   17.380695    2.694682
H   65.861168   31.334724   58.506626
H   39.747509   88.441757   23.561317
H   43.314613    0.709214   73.147964
H   70.076454   88.386497   90.932648
H   97.317055   41.896294   71.901031
H   65.002121   54.332680   71.380981
H   43.835251   74.799141   75.590317
H   86.015266   42.042301   38.006454
H   24.323042   62.735432   62.914696
H   32.020786   69.919991   75.267616
H   24.950249    0.645832   89.972725
H   73.910301   46.054115   72.448746
H   72.138702   74.293610   95.601875
H   61.641808   93.646614   42.162361
H   23.128937   46.803665   64.722801
H   84.299652   34.939770   90.836571
H   32.254196   96.480927   63.240074
H   51.019451   73.452820   45.946457
H   63.885426   87.324936   25.745846
H    9.391480    5.103550   78.365715
H   28.810381   17.554640   58.282837
H   41.964989   72.762848   73.687744
H   84.727570   45.301785   76.059807
H   66.795547   82.326866   89.221970
H   56.211491   25.187996   26.475126
H   79.657333   99.040009   76.088272
H   55.663528   27.770187    5.679368
H   60.979282   55.361420   64.405151
H   10.033039   19.350981   29.349804
H   95.996559    3.396049   36.934753
H   37.519722   41.184204   40.609142
H   52.108139   46.349552   16.849842
H   24.232489   41.689148   58.393303
H   62.587860   86.002327   59.801445
H   24.256813   63.463558   77.578903
H    3.789136   25.845009   35.168606
H   59.102139    5.064020   82.351746
H   65.705627   14.136827   35.916069
H   21.462040   38.889507   59.653759
H   51.487774   46.730049   70.305923
H   62.421047   57.437222   90.827980
H   38.205902   89.657898   65.612152
H   22.977440   51.529446   23.989346
H   28.072563   75.258095   16.816311
H    8.066962    9.882736   74.022812
H   57.315353    4.757666   60.773354
H   52.289440   62.124855   96.471329
H   68.363960   10.812285   25.095701
H   33.649212   30.978848   95.718422
H   32.712852   89.411705   20.232796
H   67.051445   26.543327    3.494292
H   94.769218   57.322609   75.451126
H   14.228528   42.257019   87.532692
H   56.248688   92.277725   15.107861
H   56.070808   97.510811   50.545628
H   85.911568   64.361549   74.715027
H   62.615604   54.383884   74.736526
H   81.975426    7.368673   74.195564
H   41.791500    4.360156   15.517273
H   19.982327   34.534336   74.186600
H   22.612602   92.066322   47.722710
H   60.357533   22.319353   19.477446
H   77.073746   12.137916   19.770525
H   14.213964    5.056138   27.599775
H    8.129708   83.195862   26.802242
H    2.378651   13.612522   46.039757
H    0.550311   10.768689   87.815208
