100
TIME:    4.625, STEP:  4625
H    4.552922   97.885353   94.911697
H   72.744240   55.487038   69.727966
H   59.254227    6.645369   69.055779
H   82.252899   42.100945   86.651131
H   53.745346   43.471649   40.301147
H   56.304203   96.197487   36.775333
H   10.574661   73.640564   52.134029
H   56.370415   88.723389   83.541862
H   39.936607   41.618561    8.959135
H   48.450813   82.791512   88.799225
H   70.048798   52.339390   94.246246
H   79.317940   55.517952   63.716454
H   48.936264   81.907005   65.458740
H   26.077980   90.820320    9.203898
H   36.758507   56.903656   28.452290
H   15.562817    7.209639   49.125916
H   52.192177   87.878693   94.420341
H   99.970634   69.779610   39.199657
H   17.304325   72.379074    7.026314
H   67.909447    7.598997   31.224100
H   89.822670   95.783417   31.714130
H    5.783600   50.223740   25.416779
H   23.993614   57.007393    0.022556
H   89.328857   92.151276   63.581467
H   64.167511   19.373604   70.696510
H   25.462961   89.928940   55.503582
H   63.261017   50.222340   91.734108
H   42.297619   72.319077   19.648897
H   11.737304   68.708183   38.545296
H   78.336548   76.370811   51.062599
H   98.077049   36.788326   43.463661
H   57.782513   24.728722   71.104637
H   96.135597   30.094835   14.453481
H   73.518631   49.869049   76.907539
H   65.806274    9.305609    6.359535
H   74.681091   47.678715    4.887058
H   23.397020   35.159164   72.897263
H   72.830956   74.314354   48.814167
H   49.851109   80.647026   96.115768
H   27.570467   79.206612    1.919286
H   19.165665   14.879598   51.308697
H   15.952230   19.430002   20.087397
H   51.078671   91.234695   35.542625
H   84.021729   90.278809   32.943092
H   55.470455   49.411301   51.884541
H   18.418858   51.131611    1.948985
H   77.867477   76.360863   69.862587
H   56.486416   43.005966   54.746712
H    0.226072   49.406528   59.982933
H   22.877750    1.126807   60.184479
H   43.191761   23.129768    2.181677
H   29.898138   34.573673   70.440277
H    4.807748   48.826050   34.256016
H   69.585197   31.743423   35.904076
H   72.545502   63.912609   39.685146
H   99.353134    7.668672   35.180893
H   89.457001   56.094337   95.863335
H   81.668594   40.113747   94.425034
H   55.039696   34.187241   56.420197
H   53.815495   83.281021   32.064583
H   51.449432   63.486195   53.793610
H   34.764336   84.893234   86.087570
H   88.051750   91.681076   16.320335
H   60.631195   66.957504    1.568478
H   15.895848   91.452881   26.275465
H   17.224140   12.350323   19.649420
H   16.496073    8.261817   90.356674
H   60.885384   82.045609   87.304344
H   87.411301   17.463318   70.161774
H   24.089186   80.767090   91.994202
H   75.167641   80.714767    6.666721
H   92.614960   98.030014   95.242393
H    5.432321   89.535469   43.164444
H   28.394512   56.701427   28.351555
H   85.160896   35.233173   52.004604
H   34.996124    3.991346   84.725479
H   86.875076   25.681763   72.844200
H   49.271236   48.303608   69.862541
H   83.298241   39.933643   69.287361
H   72.706421   57.067547   22.473228
H    1.376081   77.129410   56.414150
H   88.344383   74.432327    0.037382
H   10.415300   84.465637   70.406235
H   68.341415    7.930059   40.994339
H   27.130537   59.589691   99.410637
H   44.848629   78.939415   62.957245
H   76.048012   67.077744   44.081436
H   30.401320   35.005394   47.645157
H   51.665878   36.659096   90.364265
H   57.427242   18.989899   89.550095
H   13.296775   23.168919   31.133341
H   20.501371   43.323891   21.653975
H   81.925041   66.292290   76.662888
H   94.251175   93.772949   38.658619
H   76.627037   35.450470   22.363846
H   75.927612   13.095627   28.561867
H   95.491936   33.099758   71.200897
H   23.842451   55.616791   82.026115
H   88.388885   56.786854   57.645668
H   26.487741   59.945889   52.199902
