100
TIME:    7.255, STEP:  7255
H   26.695932   56.702522   92.503860
H    0.112026   98.000633   35.556019
H    4.477582   95.858208   38.178555
H   82.694336   33.745331   42.491756
H   30.187902   54.277584   68.992477
H   15.511493   93.348213   97.232834
H   72.734436   51.230869   57.803600
H   49.657600   16.252125   42.064148
H   75.286125   88.754639   43.410732
H   76.599800   20.556047   91.780342
H   25.412598   58.163212   40.911140
H   78.938507   87.346420   76.510399
H   81.122398   22.849758    4.125007
H   95.857430   82.713936    9.348072
H   68.725227   21.980461    2.010734
H    9.815201   77.180115   30.812933
H   40.703224   61.831287   33.839626
H   56.212521   41.810623   48.029922
H   58.261219   82.709595   45.582607
H   97.056900   51.742970   10.286692
H   33.754730   33.959274   60.327274
H   57.924255   53.715103    1.448028
H   88.877495   35.617775   24.776686
H   44.964050   23.619112   68.255310
H   70.103951   10.801643   90.119728
H   13.399364   12.224461    8.154555
H   36.472012   40.895432   43.919636
H   20.386185   95.078590    6.583185
H   68.923805    7.322592   14.224520
H   79.182343   11.278589   60.140190
H    1.584165   72.624863   35.386497
H   23.842251   52.061481   27.632347
H   81.389778   37.671577   51.384651
H   84.642479    8.845258   66.109665
H    0.398604   10.364693   66.453094
H    3.302733   53.671677   96.617165
H   75.647385   38.842407   80.131012
H   64.127708   26.181980   34.406418
H   38.836849   23.342024   41.248627
H   79.853142   32.994282    8.842393
H   39.423279    5.121393   13.269354
H   88.801979   70.053635   50.339863
H   73.723785    7.008497   25.510296
H   16.088093   34.417442   90.091057
H   27.338631   45.645901   76.939888
H   84.475945    1.294664   12.635485
H   98.414352   19.389748   95.104744
H   56.630428   70.094131   17.475796
H   77.099922   31.590855   55.070663
H   78.059814   41.159176   76.263222
H   43.003429   69.220062   29.904400
H   57.721706   90.528503   97.791016
H   59.364437   64.075684   81.510139
H    8.685150   88.830811   51.959061
H   63.141068   94.398109   62.057964
H    2.631853    4.902167   45.649475
H   56.186199   80.206352   45.998375
H   85.833664   91.741875   26.683767
H   62.462311   45.316547   54.518852
H   80.263283   85.431473   57.261131
H   17.351419   41.180275   48.738419
H   41.423805   60.413559   67.090042
H   66.603752   12.214614   35.973328
H   41.227688   81.284134   30.166164
H   20.285419   81.399872   71.195473
H   55.661285   81.605858   75.156067
H    5.485906   99.187683   17.333601
H   79.213203   32.459221   13.033553
H   18.489525   28.488297    5.210797
H   77.370049   13.045300   86.455856
H   91.652748    1.771513   75.122353
H   75.835335   10.705092   87.834908
H   33.952148   59.449230   75.732239
H   70.495094   90.250549   72.086212
H   11.952256   38.997784   51.380634
H   97.167809   72.551292    7.760512
H   25.691833   97.861153   19.409727
H   72.833420   76.334373   15.105296
H    9.417865   32.208500   98.622841
H   43.732620   13.805085   95.896553
H   52.843468    4.338662   13.604247
H   85.705940   91.520447   80.050591
H   76.770760   28.447302   20.872398
H   49.281345   32.985592    0.785761
H   99.071411   95.078026   44.461433
H   84.317123   75.543777   45.592499
H   51.699833   75.854866   69.489738
H   72.709373   24.521189   20.354836
H    6.244375   90.225838   68.854256
H   24.899015   10.784367   83.565231
H   20.927235   65.179131   86.674118
H   15.095430   41.124359   71.760506
H   50.512928   45.206059   80.044868
H   48.433762   53.325279   15.992259
H   31.158863   99.870071   82.798950
H   93.154816    9.240245   92.718559
H   86.734795   84.029404   19.947273
H   24.273493   45.436253   33.238098
H   63.101585   68.131050   37.355244
H   89.847481   92.459549   98.842514
