100
TIME:    9.282, STEP:  9282
H   89.618561   70.818001   90.648087
H   44.129532    7.841063   63.366245
H   39.319935   41.687767   14.383717
H   83.034561   50.232536   31.384123
H   12.024515   16.750214   14.033030
H   84.081299   91.152214   97.973145
H   66.498802   88.102837   16.317669
H   90.339401   91.613205   55.952126
H   25.458595   93.865402   15.818003
H   21.234373   49.660770   71.148567
H   36.865997   39.722351   45.658531
H    1.571185   88.949440   32.225594
H   51.867355    0.162111    2.688304
H   95.492844   76.466164   63.605648
H   93.345161   40.918831    4.530395
H   28.314651   99.891159   62.553772
H   77.703743   95.903679   18.365431
H   99.556656   43.176720   77.765701
H   89.837494   67.746429   52.372257
H   42.441395    8.700293   48.294304
H   13.469591   32.164948    5.314691
H   52.254726   56.405975   28.830215
H   61.814125   19.138353   66.781509
H   56.626957   47.867889   17.711843
H   97.607651   50.052139    5.087204
H    3.840327   52.470139   17.404100
H   61.682739   56.636784   84.135788
H   49.353012   89.692093   73.587486
H   12.999307   91.227898   18.406822
H   56.905907   61.109970   21.280827
H   81.361336   54.390026   75.016800
H   51.828419   96.061584   39.982826
H   24.168457   89.367462   33.992821
H   70.288620   23.082672   80.715889
H   49.952461   56.892342   89.776886
H   79.506027   12.438462   90.245674
H   70.062836   64.608162   39.850544
H   80.349083   89.088081   77.445656
H   53.277287   79.178673   44.817398
H   88.932755   43.233757   68.324112
H    0.893072   74.668976   61.024380
H   17.977631   78.002533   53.822376
H   91.168060   19.168690   71.920464
H   86.660805   68.447426   88.278755
H   51.510590   65.684105   50.399014
H   58.312897   39.950756   20.870481
H   14.259988   29.625711   14.568089
H   56.754147   90.971588   42.894718
H   36.351730   63.713871   74.212585
H   20.612852   72.015434   34.535168
H   42.964985   73.534660   51.122421
H   56.234417    2.437909   64.730537
H    1.399789   75.828918   63.790115
H   61.737686   55.763252   41.404610
H    1.747779   72.035645   79.287476
H    5.156479    2.769960   76.645599
H   84.690353   21.718544   38.782967
H   34.898621    0.316368   74.471825
H   22.330437   30.966860   98.905846
H   46.501881   41.233974   99.608437
H   45.218189   46.914547   90.700798
H   69.481590   41.546524   75.375145
H    4.215148   73.895897   96.975861
H   80.418701   92.325989   75.134842
H    0.740567   19.505116   59.960972
H   31.140869   80.837944   95.008644
H   42.856583   69.262817   15.196987
H   39.194626   48.385262    9.935883
H   19.514948   82.841019   78.082458
H   18.537582   14.856106   82.156647
H   27.280067   63.852497   50.811714
H    8.917468   43.401756   36.412754
H    1.788112   59.183170   23.758465
H   25.876949   61.960857   51.648415
H    9.594556   41.982487    5.069158
H   45.091209    2.461459   71.367508
H    9.786252   22.419430   55.362640
H   68.057274   43.800377   27.059937
H    6.620189   26.254559   21.244181
H   44.326988    3.384274   21.268517
H   92.526100   25.308908   34.755913
H   37.809845    4.670313   10.472139
H    4.980246   62.346104   13.913350
H   88.735802    6.439823   15.650570
H    0.375168   68.274155   47.967804
H   37.666607   49.998306   86.353363
H   87.078636   28.475151   66.144753
H    5.308730   62.321083   99.338623
H   48.313236   77.365532   52.276009
H   45.685658   27.389465   56.024010
H    3.880470   74.630356   29.480980
H   65.072906   93.574890   10.387681
H   80.447662    6.019842   36.795891
H   44.233498   76.292587   52.822094
H   96.109207   18.304256   29.375322
H   60.576736   29.195402   88.021393
H   25.840652    0.353893    3.371468
H   20.360903   45.733257   92.541344
H   66.539970   76.884117   67.573662
H   15.752899   40.443027    3.574848
