100
TIME:    1.811, STEP:  1811
H   94.852203   55.943375   97.487991
H   50.894005    2.933858   92.237633
H   10.884306    4.195075    2.076257
H   81.780579   58.037132   40.896313
H   78.950089   17.917149   16.601173
H   99.933235   99.246101   58.095852
H   58.054508   83.625114   32.075417
H   77.545265   45.275974   41.914337
H    9.110161   12.173203   86.091133
H   25.349646   42.386635   78.607414
H   31.800217   39.111881   65.303848
H   86.719223   14.466522   64.020042
H   28.065033   52.139412   45.130043
H   65.411476   99.493843   95.057259
H    2.527864    8.261580   63.721161
H   28.708664   53.333534   82.712662
H   78.465775    1.761315   38.241829
H   39.844734    6.631663   36.762497
H   73.469093   54.328651   58.771435
H   43.725975   67.353134   39.633919
H   56.809326   75.927002    8.091053
H   35.998417   46.490250   65.052711
H   61.564568   79.893471   80.534943
H   50.780006   58.401829   72.574387
H   64.812126   42.545074   49.923973
H   38.355068   73.645264   19.427557
H    5.913845   67.198013   35.903606
H   79.734665   40.971066   26.633921
H   50.549377   13.400243   71.565483
H   70.435204   46.017838   27.357548
H   87.341347   84.446518   66.105377
H   80.104889    2.478414   31.610710
H   97.921463   35.980415   60.946136
H   54.620491    7.755398   95.457245
H   35.756584   22.022591   35.005470
H   30.014481   26.747114   14.414052
H   53.496933   38.214211   51.164982
H   89.139534   25.807667   50.237873
H   69.306168   41.848488   68.552048
H   92.617577   42.643635   80.520340
H   11.480049   18.323275   85.010910
H   68.858826   93.135704   87.884003
H   26.840040   74.359970   32.284103
H   63.714622   43.123123   57.803265
H   99.565102   60.435795   11.082117
H   54.723133   97.458839   90.524361
H   55.202564   23.433672   43.098091
H   56.336132   14.029318   80.632362
H   17.968481   82.462242   72.234146
H   63.872257   58.313976   56.999874
H   43.406452   94.802803   72.511749
H   93.144722   95.691544   55.174221
H   46.446785   32.509521   97.689171
H   34.753986   77.659477   11.731215
H   96.585739   17.266546   15.773766
H   95.832199   10.628674   30.976089
H   11.062094   37.291527   28.228720
H   91.206390    5.860744   66.908401
H   33.106438   15.287459   72.452744
H   39.511028   66.988449   12.100688
H   73.939865   94.352730   73.195213
H   34.635223   11.087814   13.411548
H   97.071259   83.656425    9.316564
H   67.398682   51.645882   77.973137
H    4.202884   16.202206   64.217117
H   90.092781   52.242836   53.265804
H   42.268997   10.974591   54.497692
H   55.267647   21.110359   52.778873
H   47.163155   19.659409   46.650452
H   67.071838   39.231178   97.919678
H   64.524986   72.180260   40.427341
H   24.642172   91.421371   89.214653
H   88.910690   28.726917   15.311367
H   90.334068   34.775696   95.575447
H   49.486450   31.220537   38.684429
H   68.474556   23.640337   74.071465
H   31.381685   69.582504   23.076860
H   17.064404   32.303452   14.453898
H   48.359779   48.197117   37.883766
H   10.710625   10.322573   64.901924
H   46.321918   48.017284   88.228218
H   77.204865   56.054764   35.343216
H   32.384724   37.483917    2.388757
H   74.751289   67.131203   98.015076
H   64.148819   35.605286   72.196335
H    9.608692   75.577080   67.544579
H   88.107307   71.678467    9.898695
H   85.108688   60.301529   76.917030
H   93.265083   93.339027   13.383160
H    6.221254   34.766167   88.956749
H   98.136086   71.219147   71.706741
H   12.282850   31.709864   68.027443
H    1.481829   81.895187   59.019089
H   22.267529   23.082766   48.924492
H   25.281219   87.511078   57.701256
H   43.502777   24.216505   73.908371
H   18.853767   71.610100   33.037125
H   13.514516   31.657257   27.059986
H   22.440731   44.656803   93.352402
H   51.710587   32.185413   23.260708
