100
TIME:    6.057, STEP:  6057
H    7.712479   66.564415   93.600662
H   33.194679   33.083897   60.020000
H   83.877731    9.669051   52.245037
H   82.493256   83.101410    8.157437
H   40.919052   58.252686    1.475969
H   34.093082   94.646095   78.591728
H   35.523060   70.336296   64.118370
H   43.818039   12.609960   52.060902
H    4.735313    3.937475   18.819975
H    9.322340    3.353168   44.873783
H   36.847641    9.959063   56.307930
H   24.661758   27.296528   61.785103
H   57.557144   95.311104   23.167656
H   55.174248   86.406502   18.180058
H   54.173424   28.991570   59.619480
H   57.985184   81.961586   30.257458
H   37.039284   82.594048   24.780951
H   30.593061    0.105623   89.558632
H   39.606449   32.452057   82.468155
H   29.331131   77.184364   28.721308
H    4.845741   53.224514   92.846413
H   43.070831   52.124741    3.468783
H    4.872985   45.361031   59.052704
H   56.276043    9.287569   57.228764
H   12.951608    5.808640   81.272194
H   18.935099   47.600121   20.844738
H   39.777016   90.694473   20.146460
H   21.469994   39.159981   66.987503
H   42.874763   98.630737   70.854614
H   33.244633   40.929161   64.902695
H   54.437897   65.197487   30.168373
H   48.199863   85.163315   38.537209
H   97.003532   25.323095   43.459351
H   34.025078   18.634697   16.579470
H   30.211395    1.056376   93.557648
H   99.162643   59.839043    0.383040
H   60.743279   82.714478   85.733315
H   13.646452   48.108875   49.866421
H   89.403961   49.444389   57.343895
H   92.691849   45.147488   14.586184
H   21.298450   64.010643   85.045998
H   89.762924   65.355667   89.180138
H   63.413326   99.821976   38.977547
H   92.584290   14.309408   72.956627
H   31.256195   92.914505   74.424057
H   99.940849   78.444839    7.768427
H   89.054977   54.238480   83.606606
H   56.562893   57.755112   43.350742
H   42.081108   30.809090    2.856750
H   52.911381   22.922766   60.028313
H   43.085690   84.879013   17.277470
H   99.492088    1.694714   76.431709
H   34.512737   57.129272   51.088566
H   36.425095    8.375113   99.095970
H   58.527702   89.411377   51.866848
H    1.139745    6.162347   86.432220
H   80.238960   14.774798   32.058647
H   75.038971    4.878353   57.541245
H   67.978500   94.691689   46.486000
H   59.318016   93.348694   91.335106
H   41.781208   96.894058   42.144131
H   83.943153   71.564377   21.293381
H   85.270424   93.963905   18.123779
H   58.964088   74.758163   62.695477
H   72.736923   77.082230   59.631138
H   29.254894   41.161583    4.320575
H    1.603597   57.766514   59.494339
H   61.967339   63.943638   55.762226
H   58.783817   14.568932   80.348541
H   53.097328   52.792664   88.978821
H   29.696293   83.282562   89.490456
H   74.539139   50.504990    0.086537
H   12.063332   18.702858    6.444534
H   96.873177   66.070213   43.266716
H   54.202229   37.276203   60.559830
H   68.852043   95.769341   88.370209
H   16.890938    1.565114   98.169029
H   16.549206   54.668900   48.946121
H   51.966885   35.727406   85.260139
H    2.484502   79.065987   99.105309
H   29.398348   91.944107   42.001331
H   95.807373   83.751297   80.272789
H    0.992542    8.413255    6.780969
H   66.860390   30.470047   10.204267
H   57.403694   70.017326   60.594162
H   11.887020   31.537052   62.399673
H   71.688057   62.959541   12.364645
H   53.442223   20.386042   32.776115
H   81.382675   56.927986   78.652351
H   30.818232   60.076466   40.740089
H   71.900047    0.492957   61.374554
H   26.455561   51.023407   48.934784
H   73.718887    9.258382   87.401688
H   32.653332   80.644356   35.213150
H   51.870323    7.179761   55.269230
H   94.204926   56.547089   54.597046
H   81.826347   15.279302   88.845505
H   26.585917   86.158783   57.285477
H   20.171356   62.959644   37.700172
H   15.435425   23.202820   14.250062
