200
TIME:    0.786, STEP:   786
H   26.248510   60.662937   24.675838
H   32.830627   40.849136   12.062970
H    6.694005   93.036484   72.241631
H   36.247147   83.355537   30.221931
H    9.413121   97.567535   45.808334
H   71.856262   37.995697   49.388596
H   11.269790   54.916725   60.219616
H   15.124181   12.462882    5.691893
H    9.601683   79.320724   34.399754
H   91.640976   67.250496   74.536049
H   31.224550    6.257689   10.215782
H   33.035583   56.596367   38.758133
H   24.575069    5.128972   38.913811
H   78.597130   55.510540   68.576042
H   93.261124   76.147728   41.635170
H   13.385611    3.469779   42.544632
H    9.892022   33.290325   88.922462
H   23.597271    9.415351   33.799824
H   83.191818    9.935028   50.521454
H   91.793327   72.206505   16.305058
H   64.637642    4.013981    0.826048
H   77.873665   69.684273   49.533997
H   78.655037   58.571594   36.035240
H   20.173115   93.037132   89.874001
H   26.978394   34.663269   25.927608
H   18.209120   86.567719   88.923454
H    9.469415   69.752419   71.034836
H    7.041173   92.653099    2.167951
H   34.065060   39.933784   35.141228
H   68.376282   35.391224   79.738846
H   12.648645   74.260353   16.862358
H   21.997227   76.303207    7.046048
H   13.930687   20.734022   79.848358
H   78.355965   64.173607   47.833801
H   21.786097   67.239853   30.065451
H   15.226006   37.472908   85.737450
H    1.935565   62.644379   90.053932
H    5.907750   58.878948   90.618607
H   32.862686   26.849415   56.568253
H   84.846527   37.443203   42.368256
H   80.666771   79.717712   19.647263
H   40.516006   31.657568   23.640804
H   66.870926   75.239159   70.602501
H   36.064896   89.752419   38.275524
H   47.432686   92.953583   64.067436
H   33.376251   99.628929   48.626011
H   90.263306   99.462189    8.149833
H   76.823235   65.542274   28.019119
H    8.196143    8.032423   61.559986
H   42.578419   20.265486   82.613571
H   65.219742   63.585304    6.230481
H    0.266519   45.095684   75.280525
H   66.903526   78.807961   15.063274
H   14.280342   93.705887   89.788689
H   54.087875   64.242065   73.115166
H   98.306572   58.898384   96.527191
H    3.872281   18.811623   43.797688
H   73.373886   71.272125   95.448204
H   16.660017   85.024887   20.331944
H   30.475124   92.923256   56.900864
H   48.651199    4.723799   26.283775
H   99.749809   17.718317   53.252007
H   86.489471   36.516830   66.464417
H   37.355522   65.931313   15.858185
H   80.125397   84.218750   40.256824
H   17.321299   37.773369   42.677567
H   65.780128   11.644811   97.115700
H   94.283836   92.691292   98.081413
H   35.943573   13.231654   55.068993
H   42.093983   51.146412   50.953434
H   58.225639   86.035660   87.886108
H   16.795288    9.470366   40.942844
H   94.822891   35.102459   81.212723
H   25.653490   96.963295   76.468300
H   85.793411    9.710048   41.939819
H   67.114555   99.800407   59.309593
H   93.119812   50.276482   64.422462
H    6.332282   15.912302   29.297096
H   15.683142   54.017052   22.840219
H   60.047932   87.621857   68.367950
H   66.541603   20.874094   93.027527
H   50.644947   58.770702   70.978020
H    8.869504   19.655462   74.304451
H    6.869056   79.713570   11.646750
H   19.465050    5.097588   42.308891
H   40.049370   66.670654   16.416847
H   60.326324    3.921852    3.023089
H   70.790932   98.222961   32.036118
H   82.397964   73.386139   79.137085
H   20.709381   10.521015   48.858639
H   18.355282   39.606228   78.325912
H   80.252190   93.325958   10.281437
H   73.197845   10.704227   80.179459
H   35.544262   74.817604   84.096840
H   38.959541   49.540504   90.680061
H   46.660927   39.916733    3.390009
H   86.712120   95.393608   21.844032
H   91.892616   36.923203   53.763622
H   24.645927   64.308533   54.816193
H   76.697945    6.799209   27.383707
H   34.226833   95.522705   94.650185
H   10.874850   84.917053   62.852837
H   34.497467   17.215719   38.132435
H   48.111565   68.947571   11.845160
H   24.614958   20.297401   42.789463
H    9.039183    0.040864   18.327703
H   91.515556   36.875671   53.717705
H   61.533718   55.238007   97.628853
H   86.672340   33.197586   25.534473
H   21.906199   20.447664    8.209528
H   54.378204   91.322105    1.180002
H    7.917230   77.075378   96.730476
H   47.610939   86.610611   82.059105
H   61.374626    7.626271   60.874550
H   45.629707    4.704553    7.628148
H   91.756126   89.825478    3.565970
H   10.126119   16.130945   90.545212
H   38.000957   53.871166   23.064507
H   39.597519   78.212769   56.555157
H   85.191612   57.572201   69.711288
H   46.253181   25.387714   69.628365
H   94.730820   14.545689   64.248795
H   45.399849   98.794510   40.226765
H   96.033127   47.671188   93.954887
H   60.578697   95.433754   74.755043
H   67.725792   77.290680   14.989118
H   81.814949   51.739304   49.968246
H   63.485756   91.852257   39.613949
H   99.186913   32.719746   72.447472
H   94.209564   21.561436   75.803505
H   70.649406   65.690460   24.277081
H   60.742622   91.466721   22.203007
H   90.654854    9.158720    1.437136
H   74.147934   27.001804   56.426876
H   31.398853   91.497559   31.327179
H   47.815796    0.926110   75.637733
H   69.796661   87.955849   82.519524
H   95.875542   47.173031   74.571312
H   60.584747   51.969269   71.420952
H   43.743706   82.904106   80.286194
H   77.648560   47.012169   32.547272
H   32.102768   57.600525   58.975033
H   37.453537   66.810036   80.967911
H   32.694191    6.763380   87.172218
H   65.966507   51.658997   66.922516
H   65.945869   71.382217    3.696261
H   57.644768   94.386711   43.372433
H   27.743584   53.094490   65.692406
H   79.781708   41.995834   92.516617
H   26.866909   94.635841   69.564423
H   56.975685   70.582687   47.222286
H   56.771339   92.001472   31.041924
H    1.540413   11.422741   84.298096
H   24.343044   13.675480   62.459743
H   35.263500   68.299057   70.630653
H   79.710640   44.882740   70.859787
H   65.026535   77.258362   87.220871
H   53.808754   27.899536   22.515800
H   87.392250   99.676956   82.355888
H   57.558254   34.665924   99.194290
H   59.319221   62.227303   68.898598
H   17.968130   20.226784   30.813881
H   88.721947   10.764412   37.005024
H   31.316538   36.219494   47.839272
H   53.726295   40.615089   15.189381
H   21.320774   47.066456   59.317135
H   65.497963   88.735786   58.009869
H   24.109180   55.774414   70.590530
H    1.492289   26.394602   35.567665
H   51.389786    6.339366   84.254852
H   68.934204   12.127025   35.930252
H   27.300619   45.166794   59.134789
H   48.222450   53.992413   75.061111
H   64.502579   61.478745   86.907013
H   46.060730   90.929214   73.558525
H   17.763237   50.612061   23.815926
H   29.808697   69.978134    9.747353
H    6.569124    9.721565   71.861832
H   61.637959    8.686530   62.749310
H   60.328003   60.312004   94.087288
H   71.449417    4.755760   29.024727
H   30.240602   30.772549   89.548798
H   40.494831   89.590927   16.884308
H   63.371483   26.230656   97.277046
H   92.583740   64.652664   76.147385
H   10.690664   40.830978   86.686867
H   50.364014   95.172356   11.363214
H   64.189957   90.352242   44.631943
H   90.806007   63.608227   72.783554
H   59.542397   55.303204   72.601334
H   73.902695   12.960007   75.402412
H   43.176926   99.767242   17.669836
H   16.228333   30.513561   70.314629
H   25.564932   85.321640   44.316845
H   66.157516   29.867634   20.030262
H   76.661148   11.723223   22.085907
H   13.090602    0.447484   21.895613
H   13.041393   86.554665   31.568390
H    4.632276   13.139647   53.598030
H    2.312994   16.494301   90.163147
