100
TIME:    2.770, STEP:  2770
H   29.998070   67.998222   96.610001
H   24.217720   54.930901   52.730732
H   27.368582   73.189041   90.822365
H   81.941544   18.526300   88.330017
H   70.360413   94.785233   90.599228
H   85.065926   98.207146   53.068790
H    7.795389   48.382050    7.070537
H    2.169762   28.242243   53.862507
H   85.536049   19.969315   25.725010
H   99.145164   56.156456   16.159136
H   42.596375   77.699570   72.928406
H   50.118866   62.536453   95.757896
H   67.061363   94.118378   49.813095
H   17.926811   96.537941   68.039314
H   14.193794   22.599615   17.620474
H   90.148193   69.454742    3.106896
H    1.360134   65.183228   25.552378
H   60.338501   59.995552    3.512779
H   88.409569   94.557022    9.297808
H   17.891098   46.989864    4.927100
H   99.901001   80.455292   82.059784
H   27.942947   47.761200   83.387207
H   48.760536   72.093987   53.097733
H   61.678497   69.903503    1.348575
H   30.512115   66.485901   56.999115
H   33.957798   45.071514   29.539701
H   23.218254   27.330931   54.934055
H   98.817894   85.733955   58.335232
H   71.401657    0.408385   26.232363
H    7.207978   22.282822    3.596038
H   25.071440   70.446045   90.225365
H   40.656593   75.978325   42.831276
H   65.473846   65.815895   47.340431
H   95.139763   19.868668   55.055038
H   11.916368   49.529419   93.402855
H   13.394994    2.082198   11.117929
H   45.477829    3.091582   26.730345
H   49.500931    8.255169   17.913227
H   28.149948   21.062952   75.878769
H    2.290771   52.865677   55.972889
H   45.941341   51.227497    7.606134
H   82.669334   36.177521   32.937485
H   35.100468   80.110809    1.554119
H    2.476451   59.197670   51.569412
H   16.378984   22.601711   93.146950
H   42.350780   15.750294   94.416786
H   63.374683   75.479523   52.049217
H   56.387348   23.903055   39.969810
H   45.998337    3.038916   33.977272
H   83.978294   72.906105   89.927521
H   43.333286    2.217513   82.623276
H   39.748890    6.703501   92.215965
H   66.339729   38.070129   41.992401
H   12.548138   62.015678   54.048615
H   20.240250    1.337654   23.909864
H   97.032120    9.620813   98.329468
H   71.856728    9.619763   19.437630
H   19.796478   15.295161   42.207596
H    8.741531   55.808208   98.828453
H   76.226730   40.699802   84.825203
H   34.434883   49.753139   98.425552
H    0.601824    2.159746   70.022308
H   62.121349   18.259981   43.525558
H   33.249992   56.862610   51.937321
H   42.268520   39.608753   53.526482
H   31.179604    4.568006    9.969048
H   65.326241   44.128101    0.797126
H   89.022804   75.956238   98.624619
H   94.957695   50.751793   86.502876
H   86.504700   87.465889   95.900299
H   34.073341    6.928575   28.921463
H   45.567688   59.594208   59.429245
H   26.382788   81.290581   90.723137
H   69.233025   74.089279   38.579216
H   95.724998   32.586651   11.382542
H   91.141350   85.103996    9.544231
H   18.452654   86.461807   40.038639
H   62.119961   69.598289   67.418167
H   94.345123   45.382366   48.585831
H   63.679329   58.095181   82.283279
H   65.088547   57.938580   45.544819
H   49.160797   62.317764   55.151955
H   93.057693   53.492615   93.728790
H   40.721836   49.194061   10.420868
H   17.453205   75.619995   79.232048
H   87.539001   10.800304   34.140530
H   52.156761    1.951357   55.627625
H    0.546564   83.521606   66.937202
H   13.167805   39.942558    5.537660
H   21.433018   95.308670   23.239117
H   37.382446   23.004234   91.959061
H   83.243027    3.826779   86.304283
H   63.012547   10.632772   33.210487
H   14.958315   81.254234   13.585927
H    8.698170    1.609068   79.738823
H   22.712265   86.347420   24.375061
H   42.732498   26.644985   77.884239
H   17.035086   39.822571   11.713951
H   76.757103   48.790676   13.020897
H   11.267654    7.553478   30.895372
