200
TIME:    0.833, STEP:   833
H   27.692698   60.506954   25.479509
H   33.249451   41.535282   13.971027
H    5.708915   95.093666   74.556633
H   37.831360   83.904884   28.992893
H    8.914110   98.758743   45.132587
H   70.327271   36.720043   47.997478
H   11.950736   54.883377   61.129337
H   16.177425   14.492274    4.023614
H   11.510323   78.616112   33.253189
H   89.986481   66.591782   72.682182
H   32.862732    7.261672   11.701027
H   33.229935   57.850864   40.997654
H   25.728626    6.688959   36.987511
H   76.375717   55.708836   70.840843
H   90.992020   76.509537   41.519527
H   12.015695    1.533269   41.530743
H   12.102857   35.491478   86.640450
H   22.481276   11.674908   32.963074
H   84.755592    8.233514   51.213337
H   91.942856   71.561058   14.483067
H   65.201691    6.360113   98.672783
H   76.827324   71.480766   47.722801
H   77.247604   58.229866   34.907501
H   21.168627   93.465637   89.726624
H   29.021233   36.553532   24.250523
H   18.170214   88.653587   87.371155
H   10.379629   70.695488   72.924561
H    8.119876   94.591949    2.291617
H   36.044609   38.505196   34.866016
H   66.252403   36.650383   78.113037
H   12.587283   76.223946   16.919821
H   21.142548   77.404770    8.203254
H   12.795059   21.745312   80.422447
H   76.800438   64.224884   48.655312
H   19.530529   65.297775   29.707855
H   13.690694   36.401287   86.276398
H    3.284493   61.629951   90.406776
H    3.582953   60.094719   88.505486
H   31.123207   25.166502   57.612980
H   84.395790   37.249928   40.532318
H   80.680756   77.522118   21.207272
H   42.855392   30.671917   22.247087
H   66.024673   74.159470   72.347717
H   35.960190   92.035149   39.956375
H   49.038593   94.387550   65.763527
H   32.714848   98.405807   49.137169
H   91.149002   97.159378    9.180217
H   75.679001   65.541557   26.329483
H   10.013793    6.248883   61.593872
H   40.896492   20.477587   80.625237
H   64.101685   62.990417    4.367851
H   98.470009   45.904644   76.291008
H   68.171471   77.464073   15.677011
H   13.580794   94.697723   90.484695
H   52.098465   63.196800   71.595139
H   97.704155   57.740345   98.066223
H    3.738161   18.989479   43.293522
H   73.887375   72.364723   94.599800
H   15.668270   85.932816   21.468647
H   29.388084   92.659340   56.032021
H   48.498981    3.806818   24.910498
H    0.594511   17.829657   53.612381
H   87.784309   37.490379   64.878769
H   38.494377   65.998367   16.907574
H   80.880928   84.919418   42.178822
H   15.477575   39.599266   43.522385
H   64.024513   10.653378   98.086739
H   94.020638   92.798149   99.011932
H   37.615280   13.866792   54.474106
H   41.823433   51.965591   50.950924
H   58.205021   86.848564   89.143295
H   15.474363    8.235008   40.613846
H   96.314590   35.915005   79.638908
H   27.184723   95.930222   77.836647
H   86.365707   10.470868   39.729881
H   68.302536   98.141251   59.002468
H   92.921158   52.026180   63.757584
H    4.591481   16.768147   27.689934
H   16.041454   56.109734   21.796120
H   59.339554   87.359734   66.139008
H   68.536392   20.079746   92.329727
H   52.711632   57.925346   69.525047
H    8.686134   20.171013   72.929291
H    5.336411   81.250450   13.178566
H   17.791370    5.594604   40.976940
H   41.373432   65.026199   15.438483
H   62.432812    4.019790    3.130843
H   70.400078   96.473801   33.808765
H   83.836594   73.500526   79.306335
H   20.473972   12.627816   48.341564
H   16.385145   40.011963   78.116859
H   79.924805   93.738327   11.306980
H   75.430733   10.174154   78.840874
H   33.436699   73.129044   85.387375
H   40.150391   48.904739   92.637558
H   44.714546   40.967556    1.180186
H   87.349678   93.767799   23.868225
H   93.779282   38.198940   54.863567
H   23.580940   63.837715   54.982754
H   77.515152    7.562876   27.395182
H   36.323818   96.822205   96.863350
H   12.622442   85.628120   62.593582
H   35.471733   15.498037   38.789177
H   50.369911   69.034348   13.711667
H   24.552654   19.679745   44.313255
H   10.899952   97.739845   16.127178
H   90.563293   36.913799   52.844017
H   61.256714   57.042568   95.811562
H   87.866776   32.604313   27.807163
H   23.416006   19.792356    8.439558
H   54.996578   90.913681    1.213070
H    9.804311   78.257263   97.265839
H   46.794628   87.156013   81.036789
H   61.215416    6.613032   59.662724
H   44.061272    6.661646    5.980152
H   89.838074   88.450676    5.686328
H    8.193678   16.792797   91.093124
H   37.762501   56.184555   22.125023
H   41.382359   79.977348   54.232445
H   86.431946   58.510250   71.464752
H   46.743721   25.700039   68.088257
H   92.703041   13.432293   65.631126
H   46.532967   96.812271   41.621109
H   95.340706   45.979939   91.896629
H   59.172340   94.270157   73.200592
H   69.447487   78.576866   14.081724
H   80.646690   51.958755   48.153107
H   62.457703   92.220879   40.010899
H   99.765305   31.018456   71.376389
H   96.487633   21.338667   76.604218
H   72.546661   64.012299   26.073215
H   58.938599   91.932877   23.311382
H   90.501381   11.445305    1.786871
H   71.843330   28.206818   57.005268
H   33.720669   90.647720   29.167442
H   46.563988    0.865790   74.945312
H   69.874474   88.075615   84.859268
H   96.276436   45.705536   73.828690
H   61.813248   52.626549   71.409836
H   43.769165   80.650063   78.980240
H   79.975395   45.630016   34.065506
H   29.939173   59.028576   60.070679
H   35.942654   67.674934   79.382622
H   30.540550    5.062045   87.951057
H   68.175728   50.100243   68.459396
H   67.668137   72.191895    1.445243
H   58.756371   94.180885   43.035904
H   26.460220   51.344971   65.422752
H   81.038177   40.033497   92.049385
H   28.365152   95.148972   67.805580
H   55.319218   71.380890   46.867470
H   58.749813   90.700897   29.569050
H    3.723850    9.665333   82.648262
H   25.585440   14.754317   61.298119
H   37.127228   69.540466   71.480850
H   81.105881   44.999279   72.305946
H   65.518509   78.667946   87.777390
H   54.476971   27.145439   23.616915
H   85.241119   99.499817   80.612823
H   57.031319   32.748230    0.997878
H   59.780895   60.317856   67.648941
H   15.761330   19.983217   30.406712
H   90.745064    8.715208   36.985481
H   33.041710   37.600212   45.828526
H   53.276276   42.209881   15.651189
H   22.130541   45.570992   59.060211
H   64.688644   87.975594   58.508118
H   24.150238   57.912815   72.534042
H    2.131057   26.241756   35.456684
H   53.534641    5.984684   83.725586
H   68.036316   12.685964   35.926308
H   25.676872   43.421040   59.279118
H   49.130558   51.972702   73.738663
H   63.923801   60.354771   87.997459
H   43.876251   90.575653   71.348587
H   19.213341   50.867191   23.864155
H   29.325867   71.446526   11.713276
H    6.985683    9.766388   72.462814
H   60.435814    7.593887   62.199783
H   58.092426   60.816170   94.750305
H   70.591331    6.440130   27.932039
H   31.188602   30.829922   91.264610
H   38.330612   89.541084   17.815544
H   64.394981   26.317612   99.006126
H   93.191536   62.614128   75.953751
H   11.674567   41.227570   86.922096
H   52.000580   94.367340   12.404625
H   61.931969   92.343086   46.276577
H   89.444832   63.817818   73.320709
H   60.397076   55.047535   73.195145
H   76.147774   11.405018   75.066780
H   42.791630    1.044554   17.071184
H   17.272343   31.631708   71.391449
H   24.743870   87.197380   45.264038
H   64.544617   27.768408   19.876520
H   76.775894   11.838552   21.441984
H   13.403016    1.729179   23.481977
H   11.675422   85.620560   30.242893
H    4.005520   13.271156   51.496025
H    1.822780   14.901961   89.510170
