100
TIME:    5.046, STEP:  5046
H   76.082191   59.277412   94.526260
H   61.116890   78.299683   96.271729
H   66.491913   36.932953   64.115761
H   82.323563   24.755608   63.576241
H   49.974487   77.216660   28.886227
H   49.774258   95.741386   78.468864
H   88.509407    2.066742   85.056778
H   23.280647   25.145260   44.887363
H   29.587624    1.140967   82.459526
H   36.945518   88.836449    5.284015
H   30.888397   69.279343   53.692669
H   63.251488   76.620628   33.748726
H   22.071304   56.448891   23.625977
H    5.233453   89.522682   41.243347
H   41.878395   19.298395    8.214931
H   98.634369   70.387405   14.178848
H   18.337959   15.725139   32.745636
H    8.973258   49.295940   24.605257
H   23.861572   90.038513   29.205019
H   56.566856   98.658241   59.887764
H   64.839928   53.872787   20.287529
H   46.145279   50.782623   89.564789
H   18.372658   53.583427   87.977646
H   50.212292   97.193085   32.312889
H   49.109772   85.986465   73.805702
H   23.543806   77.485748   15.915335
H   26.956285   32.720287    0.085270
H    6.775455   91.969940   33.566383
H   20.891808    6.904830   18.644978
H   94.479935   65.951164   84.531380
H   14.646506   74.539566   10.155479
H   84.364815   13.097959   32.130531
H   25.790379   99.293465   52.380486
H   91.306549   11.286902   59.171013
H   55.341660   77.481125   31.994308
H   11.278012   80.652855    3.562615
H   63.775101   19.740406    6.070413
H   55.430058   66.612038   78.523293
H   32.079250   71.473625   55.317261
H   87.916557   39.793701   35.042927
H   90.393753   29.323851   61.227276
H   78.114738   38.324982   39.863529
H   54.704990   93.759308   65.950600
H   57.138317   97.339722   74.106735
H   18.952936   32.802177   87.910057
H   12.986961   59.161549    3.660368
H   81.156540   99.255821   73.903252
H   56.508900   47.342133   80.795830
H   12.531387   14.540539   43.187515
H   31.707470    7.534697   30.740303
H   43.159641   82.484543    6.619824
H   50.358253   95.508026   42.801979
H   13.540452   51.267151    9.804708
H   59.835014   24.873009   54.482140
H   39.025330    0.811709   43.266499
H   99.879898    7.225821   20.849060
H   16.147049   43.946648   35.904121
H   50.319717    0.354879   83.581406
H   88.244225   51.975159   24.098484
H   26.035122   15.639928   20.090340
H   78.006042   43.909206   20.970436
H   19.823538   80.974625   67.040558
H   16.632864   62.953171   87.451080
H   89.539345   69.250854   90.139832
H   32.606209   57.829334   65.481071
H   91.362358   91.421562   44.542229
H   82.718231   22.816456   10.682777
H   31.804161    6.122913    7.430579
H    8.393005   87.212959   43.756874
H   32.618469    1.940620   91.107697
H   61.799400   52.070374    1.616204
H   57.900497   84.057922   26.065891
H   77.982513   68.709023   32.368996
H   19.127270   30.057976    3.337869
H    5.460040   35.833813   83.918793
H   44.950035   30.973604   56.396725
H   25.098700   89.192574   80.289558
H   69.050583   20.774426   93.110817
H    3.488270   38.697033   73.983269
H   52.059845   34.137257   86.203888
H    9.614309   81.484848   81.576759
H   19.932587   77.181778   64.834129
H   37.045784   91.506287   10.498742
H   97.307007   43.956467    2.543553
H    6.630446   33.254707   58.599281
H   35.158100   94.401863   92.192642
H    4.165670   36.467621   64.156281
H   37.178207    1.300053   43.267235
H   60.402451   13.219294   86.921028
H   20.204172    1.667717    4.600789
H   30.525810   45.900692   40.024090
H   51.651798   74.986832   29.674627
H    8.911803   78.927315    9.219501
H   34.942978   19.309462   67.043190
H   69.348701   97.738945   32.036716
H   10.700545   96.471222    6.816456
H   62.074547   57.260235   46.989029
H   25.387411   59.201355   75.287392
H   68.333313   58.601620   22.381393
H   52.636433   49.144016   11.643012
