100
TIME:    9.868, STEP:  9868
H   49.989166   17.079304   90.111588
H   27.945705   39.597050    0.313242
H   49.392704   83.847649    7.504234
H   83.132919   26.089533   99.263077
H    6.773531   63.720703   98.144722
H   74.996582   90.517357   56.007553
H   35.788342   27.672731   62.143627
H   44.280960   42.308918    2.146032
H   11.053596   37.524063   78.932640
H    5.226583   58.074863   94.092842
H   82.357635   63.301483   89.211082
H   79.207802   18.321949   90.514412
H   14.500153   64.690605   44.452965
H   66.477188   74.659950    8.198498
H    0.462784   88.574432   76.346947
H    4.751245   48.637619   13.910411
H   30.581245   34.662109   71.711319
H   12.088607   14.661850   57.451714
H   98.966919   92.327026   83.255295
H   26.654911   96.255096   88.191948
H   78.695114   73.828072   89.407745
H    8.435120   57.183899   78.926941
H   53.990181   14.374313   50.015915
H    2.178001   54.878143   74.191605
H   76.648422    3.577911    9.412727
H    1.075960   35.194870   62.260029
H   11.149925   32.275257   95.759933
H   99.909065   17.044590   92.955101
H   25.741421   44.393925   90.706924
H   79.376274   46.606613   67.866310
H    4.422491    6.938902   28.654343
H   88.828964   79.868256   85.733910
H   65.447426   46.492249   86.784325
H   95.048050   69.379387   56.027992
H   35.368629   12.523872   25.430021
H   30.445276   58.339474   88.403694
H   26.268929   43.148201   86.025223
H   56.127605   78.367043   18.798866
H   28.540211   66.409996   88.030220
H   33.738400   88.373535   14.427960
H   60.843460   94.778748   74.830284
H   68.592400   80.305008   83.730217
H   96.211151   22.684994   14.249109
H   49.247173   78.283241   45.573315
H    0.657627   42.529209    0.532123
H   50.752731   51.127819   23.251196
H   18.842159   61.498058   20.194906
H   56.789913   97.007202   79.153107
H   53.479462   15.183052   50.836594
H   32.912094   80.939201   93.562172
H   46.228687   17.207489   52.222244
H   84.713577   48.062302   26.263224
H   13.554792   79.226746   29.753948
H   48.168732   46.200157   67.263863
H   55.090187   23.388903   84.267975
H    5.886341    2.153545   56.696777
H   21.840736    4.809249   94.516273
H   91.264603   44.976479   59.378319
H   68.549355   55.730667   53.919399
H    7.833477   86.275330   82.941200
H   82.185242   19.663855   45.016048
H   48.683311   36.092117   48.860596
H   44.021954   33.945412   56.809219
H   20.657604   95.518158   59.226303
H   24.000069   72.702736   14.532243
H   95.143341   51.706047   29.658030
H   95.839882   89.524597   43.489697
H   98.715340   81.898567   37.950073
H   48.722847   40.734787   41.329517
H   30.438919   44.287594   80.913757
H    8.669817   23.977207   43.783577
H   60.660294   23.944725   79.365570
H   63.580414   30.198671    8.732021
H   12.978619   24.874931   16.830603
H   37.821571   42.845356   49.499943
H   58.946297   40.019115   31.938465
H   63.007759   71.700485   65.756554
H   95.588615    5.485368   59.424240
H   34.719673   24.533291   27.784998
H   15.589786   71.462410   70.784248
H    3.997867   31.371347   69.780357
H   81.782219    8.474496   61.445862
H   42.046272   72.146156   69.722198
H   29.052086   56.585526   62.127075
H   71.842361   31.617340   91.162445
H   24.178127   71.523766   27.047230
H   26.216326   85.867851   94.087410
H   14.732271   15.430291   93.267242
H   60.473881   44.737450   47.483284
H   93.874847    3.278305   76.972595
H   27.862539    6.274166   41.856224
H    8.430971   37.646988   21.551332
H   18.011173   23.603598   82.112175
H   97.561501   11.594853   97.414101
H   85.978317   65.815285   42.841011
H    8.977981    6.056213   57.753906
H   79.327049   33.981857   69.670273
H   19.229784   74.728210   80.774132
H   38.624138   79.414604   18.488796
H   52.149895   25.406662   47.124638
