100
TIME:    4.379, STEP:  4379
H   21.188263   20.444611   95.136917
H   79.538368   42.155907   54.216652
H   55.025726   88.947182   71.942345
H   82.211609   52.235832    0.134297
H   55.948746   23.753664   46.971405
H   60.119801   96.463997   12.412874
H   23.467354   57.029819   32.896511
H   75.705528   67.440125    6.128033
H   45.983757   65.270386   24.444143
H   55.173622   79.259315   79.167328
H   92.931122   42.440983   17.942387
H   88.705849   43.187172   81.227287
H   64.634079   96.782768   89.902588
H   38.258156   91.578560   90.483490
H   33.766838   78.877594   40.277920
H   25.454655   28.725822   69.545837
H   71.973976   71.606567   72.025993
H   94.711754   81.749794   47.728046
H   13.472775   62.059906   94.065842
H   74.538414   12.823156   14.475260
H    4.420639   20.273808   38.390060
H   82.199341   49.897171   46.365967
H   27.278069   59.008095    7.061143
H   12.184990   89.200897   81.850586
H   72.966095   38.883263   68.879738
H   26.584368   97.199783   78.636711
H   84.473030   60.449192   86.854347
H   63.053493   60.836624   11.516847
H    6.387866   46.388912   50.174141
H   68.903595   82.459251   31.506042
H   88.396355   14.729222   62.926399
H   42.249859   31.524727   93.878105
H   78.808693   48.093544   92.291855
H   63.124741   72.413544   87.271400
H   71.920990   27.901421   91.379456
H   53.296482   28.411167    5.661016
H   99.802505   44.167953   53.513355
H   82.999626   78.814995   31.455357
H   60.235615   86.007256   19.954554
H   50.740128    2.235459   82.565308
H   35.977600    6.439445   45.513042
H   38.061569    8.389127    8.530750
H   48.959728   89.759506   17.773916
H   99.730804   86.157288    8.890527
H   76.809273   59.116394   30.833952
H   21.592579   46.439533    0.948929
H   75.945602   62.982811   67.501534
H   56.473278   40.472244   39.525612
H   93.034103   69.780060   69.795776
H   17.718342   97.383842   77.390846
H   43.210529   46.879539   99.588287
H   17.943663   57.401569   86.588531
H   99.705070   47.399658   48.544331
H   75.283257   35.757965   25.049088
H   92.132111   42.353451   37.592480
H   99.045334    7.927440   43.555313
H   73.860535   63.192513   72.466759
H   99.986465   63.345161    0.761289
H   35.638893   23.792610   75.305626
H   70.048904   64.373825   39.061409
H   35.931793   74.927269   72.973824
H   43.495354   87.182968   97.217178
H   71.351707    8.467698   33.189293
H   43.737839   65.617447    8.248119
H    6.131590   11.100170    3.365928
H   32.336098   24.579628    5.104297
H   36.233566   99.757172   78.480087
H   77.878212   67.976883   75.544121
H   75.151840   35.139313   85.589325
H   19.105261   68.395020   92.512207
H   82.979012   97.452347    9.617931
H   12.898922    6.194419   77.232323
H   21.472620    1.704578   49.472473
H   33.811047   72.268745   42.968315
H   73.299324   34.882206   33.356411
H   29.179827   88.225670    1.279026
H   64.540787   47.004162   68.493706
H   37.713711   64.389885   56.276970
H   71.500481   40.656223   66.543434
H   84.770691   70.465340   43.666405
H   96.563431   74.584427   41.711056
H   69.887627   72.825760   20.608366
H   94.855019   80.351837   46.978191
H   51.417549   86.879341   63.461884
H   39.108856   74.976494   23.257355
H   50.511028   69.904350   45.874329
H   59.618233   84.963943   32.351242
H   26.442144   54.700859   50.203278
H   46.560898   50.356209   92.376228
H   79.176529   29.111649   80.755264
H    3.229342    9.885647   25.938272
H    2.298278   24.823967   16.966589
H   66.155907   58.910133   57.639324
H   70.475479   78.852142   22.072500
H   80.879936   57.486343   16.711769
H   55.609039   22.809307   41.268013
H   15.018126   18.982235   85.348450
H   22.939695   53.522247   85.963707
H    0.107817   55.726444   78.250099
H   11.208313   66.258339   75.897705
