100
TIME:    0.067, STEP:    67
H   12.791682   15.876956   99.084671
H   99.406456    8.377392   82.226868
H   80.915588   78.724159   22.553177
H   81.487854   29.890482   36.490723
H   94.570938   78.127869   63.888649
H   26.977383    1.140730   85.380791
H   49.458241   65.863106   95.691971
H   14.620230   94.398804    2.041660
H   51.981010   79.851562   95.869164
H   73.009605   17.349270   10.312288
H   94.022858   68.938416   33.295959
H   53.284763   27.048851   88.160255
H   39.000458   57.653809   18.469891
H   51.764622    4.870690   62.340004
H   81.317955   64.036331   47.552509
H   98.828186    5.877864   27.478596
H   18.679296   86.427925   79.454964
H    2.576558   91.442307   97.223434
H   46.307594   81.164413   66.890915
H   90.835762    4.127554   20.758890
H   60.300674   49.547897   55.422661
H   68.772194   44.188370   13.550388
H   84.849480   94.077309   30.434177
H   12.816547   37.485325    2.098138
H   27.186377   80.859306   37.052994
H   46.346714   25.618130   82.890465
H   56.302029   39.692211    1.295898
H   26.887268   59.566509   68.990891
H   12.627938   55.170620   54.004944
H    3.563150   89.181412   88.715233
H   18.737337   28.050470    4.110206
H   69.987793   50.658966   93.061577
H   75.077942   63.580162    3.832844
H   80.933006   67.582550   68.928810
H   79.106438   53.855515   28.808441
H   78.380455   89.749077   20.413794
H   86.226402    2.080234   13.743719
H   61.219048   57.727955   27.169558
H   47.709072   79.077736   35.705223
H   56.882069    5.910477   43.305664
H   30.662899   58.477871   43.916515
H   25.599594   14.863483    5.948136
H   11.818871   63.901714    6.313084
H   75.081238   13.894700   87.282364
H   50.843170   29.248436   61.840813
H   77.095741   64.463676   83.581032
H   36.787525   29.354839   28.195745
H   56.242992   96.071716   72.723526
H   66.985649   26.900288   41.801811
H   27.294989   31.769176   78.978531
H   43.534145   63.176575   54.132618
H    8.389493   57.522552   69.664536
H   10.269213   22.397217   98.978218
H   75.133011    6.109143   34.772236
H   35.425858   64.379379    0.974711
H   93.650070   12.461979   90.345963
H    0.500211   87.613548   62.359703
H   21.071020   70.559181   11.829208
H   95.561821   41.599960    6.339431
H   54.601585   32.937714   61.694656
H   63.927170   75.454208    9.172536
H   96.533173   27.321732   92.322556
H   78.778069    2.584243   28.961639
H   47.640465   42.158943   25.321806
H   34.980789   55.493771    1.800392
H   97.229591   38.942402   50.147427
H   82.192863   50.677868   70.297043
H   75.737572   21.369087   69.405586
H   60.243256   44.972130   56.031483
H   31.744091   51.514366    1.589875
H   19.905329   90.845558   61.343845
H   68.441673   49.301933   61.528164
H    2.622800   14.993084   60.031704
H   28.716240   45.140278   99.226601
H   65.400436   28.739031    6.476767
H   27.241751   11.866236   91.421616
H   73.038788   20.737049   92.217346
H   35.128113   46.339146   18.140129
H   64.766060   53.303562   18.435528
H   96.239639    5.304809   15.148939
H   12.193262   29.974058   83.993210
H   46.351276   44.665115   81.178040
H   22.035263    8.375653   36.281189
H   54.779648   17.894871   57.310493
H   49.068718   44.694687   41.257301
H   49.756962   11.509757   46.437687
H   71.629494   98.481468   26.738018
H   57.033737   99.930016   95.041588
H   57.073677   90.442085   27.652874
H   60.411140    6.530384   26.606985
H   26.764498   77.048569   34.876659
H   83.243950    0.545820   34.801590
H   89.583153   29.638990   24.098082
H   53.704269   17.296236   31.336521
H   55.433338   43.728596   17.626984
H   99.455475   93.085869   63.988274
H   57.284111   71.525398   33.335655
H    7.111396   16.808136   54.963142
H    5.520308   37.139103   39.439342
H   43.402447   76.981728   91.232773
