100
TIME:    6.208, STEP:  6208
H   97.501053   52.716911   93.462418
H   29.024712   41.266827   69.540932
H   86.474426   20.532200   50.472050
H   82.518600   76.880402   99.880371
H   39.566559   70.356003   97.381744
H   31.750988   94.482506   93.545189
H   27.609386   80.531837   75.926765
H   31.949738   25.673000   38.196117
H    1.023397   89.419418    9.314878
H    5.197466    5.521449   50.786045
H   22.801987   16.034628   41.763443
H   18.898109   34.865421   51.036583
H   47.921494   86.180046    8.163506
H   47.697517   85.941078   29.671642
H   56.008369   15.503662   52.359066
H   51.913940   68.754616   17.722702
H   24.896797   92.582222   38.527077
H   33.822224   92.757935   84.323769
H   41.957760   38.787117   90.424133
H   25.263283   73.977089   39.002098
H   95.885208   38.191563   88.747459
H   57.547348   52.325195   90.609756
H    2.856733   44.132957   54.732559
H   42.245365   11.093966   46.013668
H    7.551139   93.833786   82.387367
H   18.246756   43.135971    6.645300
H   26.755756   84.418167   23.142912
H    8.729188   46.208153   71.978134
H   46.158073   12.330505   63.716583
H   39.034779   37.191948   76.906937
H   60.381264   78.738548   18.221733
H   57.734135   80.990631   24.558372
H    7.639769   14.275621   57.062622
H   40.405067    4.796610   10.218489
H   26.456299   89.637367    2.749635
H   12.288620   71.665871   99.908211
H   75.226448   77.184692   97.631569
H    7.405571   45.345135   60.521626
H   83.030884   46.154167   42.710701
H   78.468781   31.010864   26.466581
H   10.979065   69.192513   88.603493
H   77.037506   65.947815   96.889580
H   64.713348    0.727741   49.883896
H   82.941727   16.843893   87.721153
H   18.158092   86.956161   87.345322
H   97.991600   81.324936    8.381887
H   90.234665   62.450211   85.055870
H   56.570957   59.310364   52.693775
H   46.494568   18.303711   96.833511
H   56.079784   25.221464   49.469017
H   43.075321   70.301117   18.869011
H    6.830042   87.683533   66.519569
H   37.645130   58.004822   42.318096
H   32.928658    5.911191    5.758875
H   46.505028    2.643863   53.151371
H    1.327816    6.003510   81.291824
H   89.812401   10.417500   46.419960
H   63.795074   90.618263   53.651962
H   79.888275    1.071822   34.894188
H   49.354034    4.954778   87.040306
H   51.306263   89.871231   30.371449
H   78.583870   70.158890   14.460706
H   95.521263   83.660072    7.769257
H   69.332993   75.580719   58.595371
H   78.729828   65.022690   73.692924
H   19.979256   33.654900   13.249162
H   89.488693   62.986401   66.784439
H   51.536781   72.579323   62.980900
H   66.309731    3.719034   70.878784
H   56.155991   60.388054   88.660858
H   24.900932   73.008682   87.679451
H   62.088085   45.493622   11.142100
H    2.217506   11.234192    2.572559
H   93.548393   56.513805   34.294640
H   61.481960   37.491634   72.006485
H   72.421059    5.446865   78.209229
H   30.602081   88.482323    0.841306
H   23.643459   44.794777   57.285728
H   59.207447   35.283871   86.944420
H   95.079330   70.840431   86.096489
H   32.353325   93.506271   51.026402
H    7.140514   84.730530   67.641838
H   10.543992   10.938235   21.161682
H   77.249474   43.391380   96.412773
H   50.051384   60.572495   45.956360
H    8.411320   37.084068   72.885529
H   81.773003   51.980614   19.564886
H   55.870720    8.302885   31.210495
H   84.516220   48.520409   77.417366
H   17.467833   53.863522   46.137390
H   78.079582    8.646408   64.563400
H   37.628033   62.380203   51.811424
H   83.398315   13.789350   99.078751
H   47.246204   89.805367   45.394867
H   49.259804   93.654282   58.739170
H    6.676970   50.584137   46.797745
H   69.840538   23.944384   80.161438
H   26.294451   93.630905   54.254463
H   12.978148   63.610546   25.051941
H   24.814188   19.327938   99.703514
