100
TIME:    8.423, STEP:  8423
H   47.708733   49.591789   91.434525
H   67.853745   61.295704    9.201709
H   24.554560   79.888519   24.466770
H   82.890381   85.622246   78.470039
H   19.721777   47.897846   37.322311
H   97.398315   92.082832   12.903567
H   11.521266   30.099207   49.142735
H   57.855103   17.298929   34.821983
H   46.574455   76.455521   69.890472
H   44.697945   37.326801   37.515236
H   16.768082    5.160364   28.403849
H   34.359093   45.891964   93.371147
H    6.642890   52.152710   88.052521
H   38.024178   79.113838   98.233192
H   82.911751   17.648941   45.838120
H   62.852737   75.022545   33.858673
H   46.779518   39.086407   40.167274
H   81.184296   84.975899    7.544405
H   76.454941   31.708591    7.119287
H   65.582779   26.942377   89.809639
H   64.443962   17.680714   28.629900
H   69.901558   55.265640    1.982036
H   73.283012   26.121267   91.357697
H   36.439613   37.591766   81.509094
H   28.328953   18.173874   98.745705
H    7.892138   77.793442   98.240005
H   35.754059   92.342422   67.096298
H   21.833700   49.596867   45.192734
H   94.320534   13.292627   59.012138
H   23.968060   82.370010   52.992737
H   47.554424   77.361961   42.978127
H   97.590782   19.794270   19.504738
H   63.662945   52.215385   56.607315
H   33.994507    1.805089   16.903757
H   71.330467   21.930687   37.514759
H    4.834936   45.156227   92.945778
H   87.674248   96.065681   72.164818
H   15.854595    4.805340   16.829491
H   89.534019   97.895897   28.060772
H   69.840210   23.650023    0.738255
H   59.599030   45.194839   40.786709
H   90.369247   74.633957    9.970258
H   83.775543   14.014875    9.876060
H   41.506618   54.024864    4.291835
H   26.023258   99.566475   76.889946
H   69.398308   23.568317   17.380663
H    7.544079   82.909187    6.318849
H   56.701717   82.124161   89.745079
H   11.244698   34.857124    8.476240
H    2.582543   58.936886   94.596031
H   42.923229   56.457329   42.218826
H   14.486351   82.147293   21.118996
H   83.586601   70.848145   13.677393
H   81.633820   69.778809    3.500762
H   70.143044   96.755905   71.986710
H    4.086596    3.673545    5.888000
H   30.233589   46.504448   57.084862
H   98.862244   81.438652   96.596947
H   54.579815   94.669777   64.853439
H    3.188647   75.208496   24.040428
H   91.029556   86.862793   57.671650
H   99.969170   49.541977   14.240057
H   45.898464   32.513092   55.880066
H   21.431713   87.646683   98.452728
H   66.648407   88.112976   79.966064
H   83.910805   23.540916   44.217854
H   11.775251   39.567066   73.724411
H   98.531372   99.257072   68.870712
H   76.704010   44.563271   31.956886
H    1.091509   71.708572   83.978561
H   54.562344   22.299580   61.114052
H   79.653366   71.923241   73.447739
H   57.795929    1.676136   45.785282
H   44.784229   16.328594    2.688107
H   68.215561   40.717632   39.939091
H   24.781450   47.408661   29.168684
H   31.771305   96.767700   40.125404
H   27.705442   99.965157   79.615112
H   65.424828   28.777714   11.656933
H   86.453850   50.178978   95.272331
H   75.709435   16.422159   83.414139
H   73.350662   99.094910   82.335564
H   50.648514   47.980503   32.107105
H   29.638664   32.933937   94.106834
H   42.200562   22.011860   31.237556
H   57.438969   18.443890   26.702042
H   29.707979   90.931435   25.184441
H   91.494041   31.056961    8.244606
H   30.487030   25.192858   59.301521
H   21.632196   62.733299   25.319448
H   68.726555   28.248676   11.340476
H    1.515604   28.969162   94.020515
H   25.383900   80.249413   70.368103
H   61.315109   24.186512   94.748787
H   10.961781   95.248001    9.638477
H   89.626831   63.116821   32.390190
H   94.024529   51.057350   52.774361
H   22.018976    3.230707    9.788687
H    7.460804   73.174751   39.523212
H   62.394726   62.482952   86.325775
