100
TIME:    7.925, STEP:  7925
H   81.386955   95.261040   91.890457
H   81.607712   34.308292   77.802505
H   15.994425   44.059814   30.312206
H   82.806793    6.139786    5.765742
H   24.184217    7.980947   50.825516
H    5.120696   92.622353   63.586311
H   37.620937   96.470810   10.198490
H   96.996918   74.214531   80.546852
H   58.816246   24.336761    1.235926
H   58.299934   30.176256   18.015156
H   63.090836   85.122284   76.372879
H   53.367683   20.929653   28.818462
H   38.398857   82.295959   37.542294
H   62.682533   80.648811   60.337223
H   76.863045   62.132767   69.786896
H   82.875778   18.579651   75.196564
H   86.825600    6.148817   94.832367
H   70.538269    9.208504   24.806702
H   68.696487   10.815480   80.881302
H   79.002396   37.517124   55.903450
H   93.995995   67.259338   42.144978
H   22.157808   54.604538   44.391312
H   79.932030   30.169569    5.605969
H   82.711441   31.634249   18.494095
H   46.140327   57.669037   95.067848
H   10.240337   92.474472   45.104904
H   78.697815   13.043414   57.215153
H   63.852150   26.351904   28.730143
H   83.492134   68.110001   82.553459
H    4.873429   94.695389   13.403481
H   27.953512   32.706024   82.378304
H   66.146629   33.552036   65.607124
H   28.582914   88.652000   11.743543
H   12.951634   47.443703   37.882889
H   83.724236   59.636314    7.214502
H   61.544346    6.148652   94.511147
H   39.909626   14.304430   32.924221
H   36.437637   13.919243   81.686394
H   10.554091    8.745581   76.321083
H   16.747375   70.272079   61.558174
H   93.634399   28.108763   29.054045
H   32.338203   72.681046   84.545280
H   79.489777   11.027567   73.903755
H   73.304749   45.663170   55.599194
H   69.219872   19.213329   34.274078
H   75.826958   14.071620   15.357462
H    3.650950   55.826790    1.536240
H   56.671322   76.994919   58.931637
H   96.687935   76.101143   28.341965
H   92.127197   51.357006   29.416019
H   42.957424    4.535597   36.968002
H   90.283203   28.357294   53.809998
H   73.259727   67.960571   42.599922
H   93.168915   77.902008   81.525101
H    9.794361   53.114609   67.754135
H    3.466337    4.197392   22.841095
H   98.663437   60.873924    9.720935
H   35.943527   28.469179    9.424619
H   15.302029   73.628487    3.083546
H   36.050362   36.930264   38.204735
H   59.615795   10.022940   96.501289
H   17.644203   54.177292   36.773102
H   12.088378   66.495270   90.029419
H   87.235466   84.933884   11.973927
H   46.880440   27.887400   33.590118
H   14.503010   48.298058   14.772166
H   51.731110   22.350746   49.681561
H   32.931923   70.776482   45.063431
H   51.884224   80.346382   63.192070
H   90.977379   46.695698   85.034805
H   70.377876   56.185379   67.086769
H   20.663197   88.458397   36.945553
H   90.265930   26.309675   58.555195
H   55.745609   47.845882   32.276337
H   44.225906   39.984341    2.180608
H   13.007232   15.490562   62.676094
H   86.541710   39.871964   31.291861
H    4.310799   32.526348   52.108822
H   41.545128   30.240498    6.099304
H   10.876094   77.306969   38.175301
H   65.960075   11.270120   53.649338
H   35.982231   95.865387   23.999035
H   19.148146   39.652134   84.680023
H   95.376976   90.318359   39.590656
H   66.448578   53.163456   79.513191
H   68.900253    0.151490   92.119141
H   96.447609   27.140419    1.437845
H   83.484825   70.908569   13.408043
H   20.150658   52.920692   63.374519
H   65.663300   83.220108    7.517619
H   48.346363    1.359553    0.823318
H   64.668648   91.515442   84.529518
H   93.461380   65.310020   31.856997
H   13.186880   93.973473   61.169353
H   19.573208   39.856720   98.195374
H   48.494110   82.782715   58.112389
H   33.552727   22.478607   81.414528
H   22.980234   78.587837   19.786909
H   31.184166   71.024269   81.235680
H   31.463495   75.263809   34.299908
