100
TIME:    9.028, STEP:  9028
H    6.795588   94.111153   90.880630
H   51.144608   94.077377   47.349781
H   34.953922   23.414143   17.365387
H   82.991928   60.697014   45.307648
H   14.300539   96.391266   20.919376
H   88.019043   91.427391   72.819641
H   79.811943   70.952721   96.454521
H   10.303299   69.637802   79.273079
H   31.702400   18.286869   31.806368
H   28.172903   46.013706   61.203438
H   60.492462   29.502281   70.126030
H   11.266327   76.217659   50.305885
H   68.064041   15.535683   27.929935
H    8.069280   77.249062   44.275433
H   90.260078   63.607368   16.744835
H   38.527557   22.107201   83.637756
H   98.128853   79.102379   95.242805
H   94.122879   55.536430   86.571365
H   85.880371   57.090786   38.991291
H   49.284000   14.094343   31.000788
H   28.542397   57.452164   12.209229
H   27.903498   56.068787   50.460678
H   65.205391   21.203150   74.048508
H   80.226898   44.829315   36.576237
H    6.691970   70.195663    3.212267
H    5.038429   59.958054   41.307087
H   83.584709   67.195633   79.097336
H   70.784485   77.836227   65.192650
H    7.475926   68.182793   30.412872
H   47.166191   67.396408    1.089161
H   71.365822   31.614269   95.112473
H   35.790638    3.079794   63.496895
H    6.276402    7.951274   11.110494
H   59.556717   46.360321   91.416786
H   56.273781   76.123726   74.324341
H   57.425983   92.543701   91.044075
H   45.701439   73.909920   19.836264
H   90.848442   93.735085   59.520874
H   63.999500   84.713219   69.432175
H   12.857111   67.013069   48.339317
H   18.251608   65.952454   55.040249
H   39.383301   77.006470   40.856113
H   88.982147   17.644558   53.573849
H    2.877193   64.184120   63.443104
H   73.543030   75.702873   28.662119
H   61.589828   35.106091   19.838568
H   12.274159   15.811632   12.128799
H   56.738644   88.355469   27.178623
H   28.927765   84.751320   84.343750
H   15.281717   68.147453   52.295712
H   42.881687   98.047935   48.597839
H   43.890209   26.007256   81.403938
H   96.132301   74.356140   78.541153
H   67.620300   59.908348   30.196148
H   21.972244   49.776077   77.128693
H    4.840122    3.037144   85.292358
H   68.586685   29.047554   14.625497
H   53.812195   24.304171   81.014061
H    2.297686   20.233988   18.405569
H   63.262486   21.709972    6.832787
H   29.194143   58.725842   10.502846
H   78.496544   43.910721   86.866692
H   86.971741   91.228172   14.393402
H   62.977795   90.942352   82.029770
H   90.659714   39.792637   36.307377
H   46.744514   93.465080   79.990181
H   63.235184   60.481182    2.933290
H   56.740067   33.859016   97.793213
H    6.855195    1.091836   94.011719
H   13.378982    2.098648   82.695374
H   35.346836   81.134407   53.858040
H   29.833662   51.835350   17.794933
H   18.349442   71.747551   30.271633
H   31.467693   78.037148   66.740517
H   97.359619   41.608479   85.810745
H   39.085762   86.183220   88.459488
H   86.717606   44.404522   50.857101
H   56.125172   60.407890   13.031722
H   94.439644   27.000637   18.409082
H   56.783592   17.221247   43.150902
H   87.553535   22.681162   19.574669
H   18.750256    3.021431   31.721811
H   88.914970   58.098301   89.723869
H   71.260124   84.704567   38.848774
H   12.742630   84.164658   72.590332
H   43.513149   40.667480   68.714905
H   70.114555   46.943016   54.033089
H    1.224021   82.645424    1.971659
H   43.042240   91.508080   54.353401
H   68.143234   37.840378   46.945107
H   93.485619   60.914577   24.116966
H   46.279476   74.471405    5.548707
H   64.165710   98.398674   17.153681
H   19.786787   60.891224   35.541698
H    0.500500   41.056744   23.539438
H   39.597397   39.225525    1.140789
H   46.001915   85.777275   17.979652
H   20.851183   33.166195   97.641808
H   78.640007   75.787285   88.847557
H   99.976242   46.960072   28.044041
