100
TIME:    3.578, STEP:  3578
H   75.356842   93.900574   95.870255
H    1.741002   98.737473    3.699144
H   41.257317   31.319118   81.341286
H   82.077164   85.236015   44.041103
H   63.123230   59.549984   68.690414
H   72.539558   97.331779   33.087120
H   65.445641    2.940372   70.257195
H   38.662552   98.145096   79.674156
H   65.673866   42.283340   74.865425
H   77.063744   67.758141   47.801773
H   67.438187   10.211079   95.098610
H   19.277618    3.037445   38.242638
H   15.666167   45.233490   69.504173
H   77.919487   94.047462   29.527477
H   24.023170   50.425766   78.781898
H   57.661011   98.783989   36.036476
H   36.385750   18.628178   99.107803
H   77.600548   20.702705   75.500671
H    0.997286   28.454721   51.864033
H   96.122978   29.833529   59.939507
H   51.953125    0.015385   60.127403
H    5.406693   48.833832   14.578491
H   37.972572   65.522575   29.980396
H   86.606514   79.594177   41.340389
H    1.615045    2.405159   62.964149
H   30.251448   20.997534   53.804337
H   53.544529   93.743362   70.965370
H   30.640917   23.448639   85.041374
H   88.970627   73.716202   88.038795
H   38.188980    2.283961   67.829346
H   56.873684   42.901554   26.298973
H   91.674416   53.653183   68.030678
H   22.386618    6.699156   20.131453
H   29.280975   45.820351   21.015385
H   91.831100   88.450645   42.602974
H   83.651634   65.557037    8.336232
H   22.976097   73.501450   90.397820
H   16.107559   93.469521   74.930336
H   94.043152    3.460077   97.577843
H   26.186161   77.223312   19.543470
H   90.721237   78.952805   26.641829
H   10.050926   72.442139   70.898788
H   42.060246   84.956146   59.915279
H   50.879272   72.737213   30.572134
H   46.290325   90.722290   62.289974
H   31.926525   31.161671   97.696327
H   69.687790   19.421688   59.810387
H   56.430500   32.222198   89.964317
H   69.616196   36.119385    1.745075
H    0.918804   85.198219   33.414257
H   43.271641   24.210903   91.142685
H   79.017075   31.727245   39.173283
H   83.094978   42.755188   95.064400
H   93.836693   48.829704   89.704376
H   55.907730   72.152283   30.779100
H   98.043106    8.770712   70.823242
H   23.081842   86.304863   96.284920
H   59.630852   38.989960   21.394501
H   72.465309   89.947495   36.798038
H   22.908119    2.804076   61.843758
H   85.403389   12.179311   35.426640
H   71.924400   94.638565   33.461372
H   16.970301   63.126884   88.116264
H   88.734367   61.257935   29.997684
H   74.340691   75.075691   28.773020
H   81.543037   64.399849   57.743088
H    0.498394   72.061462   39.808758
H   33.208961   22.167086   37.251690
H   35.229439   92.694077   35.826839
H    2.877142   28.105200   94.198883
H    8.414103   51.952888   19.227707
H   78.944260   32.778412   18.585739
H   73.699081   41.323132   70.010246
H   51.447811   22.956089   90.561913
H   34.681530   33.739422   72.634560
H   10.241853   36.888824   55.174618
H   91.814064   16.429008   54.328068
H    0.081269   16.763468   12.038530
H   33.090744   43.009014   57.604568
H   24.053596   14.087708   12.673246
H   80.894455   66.297714   93.837906
H    9.785268   67.594620   87.587036
H   44.179012   66.980652   70.686737
H   96.311172   18.336128   36.621674
H   78.110184   25.078259    0.905551
H   68.946716   40.480415   90.250275
H    6.121267   43.203178   94.156067
H   13.550684   18.830811   58.532768
H   29.938206   94.955345   98.927376
H   49.995739   62.069054   52.120972
H   70.449097   66.631767    9.022622
H   43.030037   64.590385    1.703103
H   14.811053   34.875000   95.696678
H   93.054695   30.264408   68.063560
H   94.727791   29.234158   98.306450
H   89.449692   54.439705   82.640465
H   78.597687   73.014732   31.415815
H   20.000235   46.702209   98.784889
H   38.265648   52.273647   45.342377
H   61.452839   86.816231   53.060272
