100
TIME:    0.504, STEP:   504
H   83.239174   75.801979   98.684586
H   87.250526   32.070789    9.792483
H   88.423859   10.163918   17.422081
H   81.561203   11.884970   12.536841
H   90.656769   13.155343   52.039452
H   20.200935    0.665108   28.658106
H   26.556286   95.369408   29.866228
H   80.272888   32.204327   61.919449
H   41.238716   37.835922   68.363289
H   61.067055   23.622276   27.425943
H   53.374176   86.522171   91.201683
H   36.604534   48.953529   57.053612
H   11.203418   31.214828   75.034904
H   30.126667    3.523319   95.593941
H   86.632423   25.004362   26.545122
H   81.259094   67.654671   91.203598
H   83.545708   15.327316   19.242975
H   11.914596   70.191101   82.073532
H   53.112381   99.494995   89.915833
H   79.006569   94.964844   50.571922
H   34.368469    6.041958   43.563461
H   10.674687   44.765160   76.341438
H   79.014900   90.523216   17.929840
H   72.214462   42.726444   69.644363
H   11.558039   46.203526   40.280350
H   44.348011   12.592179   41.933372
H   18.617907   21.525959    9.967428
H   90.015068   79.964203   83.433975
H   22.130264   94.819084   33.347198
H   20.319014   78.365768   23.454933
H   35.927677   67.238838   69.529533
H   97.580353   38.586388   52.606270
H    5.858322   31.606688   43.201256
H   99.396950   27.533997   50.518211
H   68.244118   20.821793   55.417458
H   16.375931   24.077570   18.910139
H   28.139500   86.077980   48.178478
H   43.158524   49.729580   58.006145
H   28.061878   69.749077   93.820358
H   15.722618   65.001381   77.688347
H    0.799854   73.473183   54.215382
H   86.324516   34.477623   26.478781
H   15.582175   66.522278   37.877617
H   47.175278   21.217932   30.010338
H   12.937569   12.006614   99.235657
H   71.514549   72.678764   85.294731
H   41.401844   52.929874   31.929876
H   56.266331    0.572487   99.762634
H   79.761711   90.708298   24.368818
H   36.460278   38.420597   48.413704
H   43.506168   20.985731   58.730976
H   29.625696   16.971176   40.975731
H   19.333956   24.931091   73.599464
H   65.017517   98.978798   54.056355
H    0.635442    2.687700    4.682833
H   94.196854   12.002264   75.469452
H   28.203255   75.004189    3.921976
H   88.529968   29.290367    0.572636
H   30.026306   60.063904   72.791946
H   25.760086   66.528015   49.274620
H   91.493057   55.131325   75.099274
H   81.023193   23.254196   72.551666
H    8.418434   72.784431   98.981544
H   77.648689   44.536118   13.455938
H   52.327827   20.590195   42.497849
H   70.383858   17.217762   75.986275
H   47.132042   65.784821   91.394882
H   45.551125   46.361801   90.296715
H   82.021812   13.572090   28.622295
H   40.596031   73.494286    0.670928
H    6.027424   61.112217   56.102726
H   32.410236   34.798836   93.521919
H   74.129929   93.377449   48.825977
H   19.097519   17.485247   73.254387
H   86.471603   29.360830   39.604908
H   37.573956   39.874352   62.015560
H   12.714541   82.861443   99.952332
H   55.659164   17.765049   42.274723
H   85.710533   52.026218   23.308235
H   74.808395   81.505989   77.501160
H   20.744717   34.495770   10.111769
H   79.139076   47.519058   44.635132
H   49.685101   15.669711   77.903412
H   84.840424   55.289524   17.395302
H   27.789358   17.357742   98.895424
H   39.693066   27.566605   76.782494
H    0.815733   66.708015   47.575802
H   64.068573   64.942543   90.500618
H   66.142281   66.110222   24.077110
H   21.775780   88.547653   42.229748
H   44.648319    0.646892   44.105297
H   15.577841   33.411247   43.126701
H   17.621452   42.732086   57.905693
H   95.940773   43.804306   60.799519
H   47.878391    4.583605   27.667461
H   35.549942   75.828850   41.416786
H   22.597155   96.604088    8.203362
H    8.715674   20.528931   47.971649
H   84.702751   39.022839    2.834799
H   70.541580   65.759331   49.143784
