100
TIME:    4.466, STEP:  4466
H   15.305050   12.466322   95.057266
H   77.135567   46.870575   59.702606
H   56.521172   95.206413   70.921486
H   82.226212   48.651543   95.365852
H   55.169495   30.727098   44.612411
H   58.770382   96.369743   21.028845
H   18.907673   62.904736   39.700024
H   68.867500   74.967133   98.139992
H   43.845131   56.905716   18.967813
H   52.796043   80.508507   82.573730
H   84.838593   45.941639    9.562119
H   85.385735   47.548058   75.034431
H   59.082413   91.521828   81.257812
H   33.950371   91.310402   97.103806
H   34.824867   71.106323   36.095585
H   21.956322   21.116508   62.324158
H   64.977974   77.361343   79.945946
H   96.571602   77.516594   44.711864
H   14.827835   65.709595   98.649750
H   72.194023   10.975588   20.398630
H   99.257957   11.612438   36.029076
H   90.540115   50.012665   38.957108
H   26.116493   58.300529    4.571887
H    4.101713   90.244324   75.389572
H   69.854401   31.983505   69.522255
H   26.187773   94.628387   70.455238
H   76.971245   56.832378   88.580116
H   55.713001   64.897491   14.392741
H    8.279740   54.282314   46.061501
H   72.239639   80.306023   38.422371
H   91.820015   22.530666   56.043236
H   47.743114   29.121262   85.824074
H   84.936501   41.728111    0.129501
H   66.800629   64.440491   83.606133
H   69.758469   21.324913   96.677567
H   60.859333   35.225300    5.387300
H    8.146864   40.981918   60.368641
H   79.403389   77.223305   37.594448
H   56.563046   84.111565   11.523840
H   42.546043   94.091026   89.409973
H   30.031773    9.424405   47.562725
H   30.242508   12.293845   12.618002
H   49.709110   90.281219   24.058039
H   94.175156   87.614899   17.396910
H   69.262352   55.684105   38.278706
H   20.470165   48.098927    1.302606
H   76.625290   67.714073   68.336540
H   56.477924   41.368317   44.908684
H   95.577621   62.574444   66.325653
H   19.543011   98.707375   71.305519
H   43.203892   38.480354    0.505512
H   22.171465   49.328289   80.877563
H    1.509610   47.904114   43.491146
H   73.268089   34.338188   28.887928
H   85.205139   49.978031   38.332569
H   99.154190    7.835924   40.593628
H   79.376358   60.682182   80.741158
H   93.508194   55.129173   98.520370
H   42.500153   27.468830   68.626900
H   64.307404   71.060516   36.586922
H   41.419739   70.881004   66.190224
H   40.407555   86.373184   93.281097
H   77.257820    2.530887   27.223442
H   49.712318   66.091370    5.885807
H    9.584832    4.151580   11.468081
H   26.991524   20.254585   10.248250
H   29.253363    2.764933   82.680344
H   71.868553   72.952408   79.703224
H   79.487503   28.888046   80.133240
H   20.867868   72.770508   92.329010
H   80.216454   91.532959    8.574173
H    5.725504    3.306992   83.601738
H   15.799818   97.401039   47.241585
H   31.895443   66.763542   37.798973
H   77.494270   35.006329   39.951504
H   31.236811   93.801231   95.424789
H   72.439499   39.463215   70.032295
H   41.801128   58.700863   61.081909
H   75.672859   40.400677   67.513847
H   80.504059   65.727440   36.171257
H   98.265305   75.484482   46.910931
H   76.415016   73.393936   13.333254
H    0.357815   81.806580   55.263950
H   57.402649   94.324043   55.516045
H   34.872757   69.535011   14.823678
H   48.508472   73.099678   51.915848
H   65.428764   78.638336   36.499725
H   27.842340   47.735390   49.298576
H   48.366318   45.512108   91.664680
H   71.484909   25.532005   83.865631
H    6.789819   14.583389   27.775553
H    8.735957   31.366623   18.624323
H   71.732796   61.520691   64.367172
H   78.883957   84.129013   27.938456
H   79.375862   49.693169   18.710674
H   62.794876   19.374031   36.774376
H    8.112561   23.975018   80.345047
H   23.258963   54.263000   84.571144
H   95.963318   56.101467   70.963371
H   16.612108   64.025459   67.517105
