100
TIME:    2.965, STEP:  2965
H   16.811558   50.115685   96.431473
H   18.793449   65.503998   65.031296
H   30.720442   87.218353   88.534233
H   81.974274   10.491804   77.642151
H   68.613815   10.415326   85.311829
H   82.042854   97.995888   72.380394
H   97.575386   61.549965   22.319801
H   86.843140   45.111637   35.957653
H   80.742577    1.220635   13.450399
H   93.816109   58.956367   23.795664
H   24.457947   85.545868   54.145084
H   42.675743   72.310852   81.877357
H   54.657776   82.320663   30.432350
H    8.271729   95.936897   82.877953
H   16.565983    5.181792    8.246711
H   82.307846   52.399384   86.920265
H   85.679420   78.081863   43.303997
H   64.505455   50.512749   96.752136
H   91.447517    2.737015   19.570597
H   12.637917   42.849506   18.203577
H   88.329422   61.043137   76.766434
H   46.637787   48.020065   66.781143
H   46.157005   70.508064   47.518738
H   43.560898   72.242218   86.866875
H   23.538372   51.020691   58.437752
H   33.063671   39.261921   11.262268
H    6.403164   19.225023   58.803646
H   82.363579   94.835899   64.781395
H   75.641693   18.100058   17.015120
H   14.684947   17.456619   19.097511
H   32.745975   87.932846   74.797585
H   52.969063   70.589760   24.779137
H   79.208588   51.548546   64.907570
H    3.378983    1.998271   46.839783
H    7.068929   34.788971    5.277282
H   30.349930   17.400690   10.447705
H   64.180122   95.950180   42.095638
H   41.441887    4.686273   31.673260
H   19.918327   16.814734   56.981598
H   83.923340   34.609718   71.315163
H   32.614498   57.917828   12.200120
H   65.143852   44.929848   42.098938
H   36.780117   81.280167   15.638970
H   90.024246   62.466217   70.635216
H   99.464195   14.908596    9.833785
H   39.835026   19.469624   95.208260
H   64.898727   86.084076   53.922272
H   56.397762   25.910749   52.035316
H   51.697838   86.888359   26.198477
H   88.066582   75.872643   76.287994
H   43.318409   83.391678   84.679321
H   49.225742   88.609360   79.415520
H   70.383385   39.200806   30.666386
H    8.032871   58.833420   62.653656
H    4.714951   18.428955   25.566786
H   97.276108    9.415878   91.691208
H   84.219780    3.992790   37.983696
H    5.276490   96.879623   37.185013
H   24.120216   64.047272   83.858894
H   63.357925   55.688702   79.278938
H   46.735451   40.685413   83.220932
H   93.680962    0.344350   61.199585
H   75.354988    4.956497   30.151535
H   46.641068   57.923363   46.642483
H   50.009190   24.034069   71.686592
H   19.200386   94.874001   21.498421
H   49.681252   50.869015   10.212127
H   75.552879   87.108276    7.946746
H    4.676151   36.740334   74.273720
H   90.456116   97.273018   95.489685
H   27.880905   93.660759   26.582005
H   29.489653   53.122574   73.705994
H   13.667887   71.644127   85.724358
H   64.942406   61.749756   26.989784
H    5.126958   32.864857   26.165390
H   95.750343   97.600945   96.423157
H   36.157581   69.561172   43.487202
H   71.281418   56.847591   78.186371
H    3.696529   44.809589   50.762383
H   54.116188   47.474262   65.483810
H   68.903091   59.955944   57.199711
H   63.792641   63.591263   38.846413
H    5.394476   56.747772   12.301409
H   54.136715   65.880463   92.610260
H    7.958071   63.423496   60.328926
H   83.052002   17.962990   47.681866
H   65.180367   87.773262   64.925949
H    3.684935   67.909348   64.907936
H   17.214920   29.085291    3.942253
H    4.192181   87.286819   30.209885
H   45.362640   33.533550   96.077103
H   97.671051   18.491045   90.020638
H   75.516891   16.481070   48.292442
H   33.806370   93.081703   26.733757
H    5.326373   84.142975   84.219872
H   38.818451   78.646919   14.303053
H   27.254364   37.835705   66.669716
H   17.750685   41.482880    8.593805
H   67.467705   49.631245   96.686699
H   23.378855    2.548380   12.111371
