100
TIME:    0.901, STEP:   901
H   56.391273   39.394966   98.321121
H   76.207268   53.596966   34.834988
H   95.244873   38.725155   12.760651
H   81.627838   95.527977   90.776237
H   87.100876   44.976646   41.274849
H   14.044758    0.233035   67.975426
H    5.749799   22.177061   60.912144
H   49.069473   66.548904   25.467003
H   31.479698   99.665802   43.372612
H   50.217644   29.321095   42.973129
H   16.446198    2.496350   52.960052
H   21.451099   68.853203   28.794432
H   85.949600    7.195614   35.576973
H   10.469517    2.299277   25.806454
H   91.460442   89.543701    7.461390
H   65.296951   32.928997   58.249496
H   51.627480   41.581558   55.388969
H   20.398094   50.885086   68.310349
H   59.294304   16.150476   10.831751
H   68.260139   86.641510   77.656075
H   10.809921   66.520844   32.789772
H   48.741627   45.289154   42.537327
H   73.714378   87.294441    6.570694
H   35.328888   47.487827   40.158897
H   97.359734   14.718426   43.210335
H   42.527660    0.763506    4.722794
H   84.384781    5.022727   17.845518
H   56.516449   98.494827   96.555038
H   30.762543   30.837423   14.581730
H   35.540951   68.540115   55.015347
H   51.544529    2.840261   38.114098
H   22.646704   27.618851   15.853966
H   33.822735    2.561271   78.966148
H   16.171547   91.151527   33.792793
H   58.376060   90.811348   79.592819
H   50.893616   55.263195   17.544119
H   66.215752   71.539406   79.460640
H   26.751137   42.463322   86.022545
H   10.214018   61.274300   55.771042
H   78.328850   27.834372    8.922487
H   73.667328   87.097038   63.571560
H   50.644432   52.296463   45.130558
H   19.001677   68.902969   66.552193
H   21.824247   27.870844   68.828255
H   78.499916   96.343002   33.209000
H   66.444221   80.141899   86.851570
H   45.593800   74.345551   35.322212
H   56.287533    4.660078   24.326674
H   91.368340   57.827461    8.532016
H   44.786640   44.463192   20.648056
H   43.475880   82.657600   62.916874
H   48.919411   80.133286   14.912308
H   27.569452   27.233032   50.541939
H   55.825230   92.503075   71.575333
H   69.032166   37.491222    8.051693
H   94.693588   11.585037   61.954636
H   53.370132   63.549004   41.680107
H   58.968201   91.799080   90.347122
H   61.335732   76.837784   42.313305
H   99.562973   97.040848   37.982994
H   16.536276   36.670364   44.146172
H   66.932892   19.558975   54.588882
H   35.347000   45.712395   71.745949
H    4.908834   46.695702    2.676191
H   68.086250   88.882713   79.469994
H   45.995399   97.481789   99.460014
H   15.279654   79.511658   10.562283
H   18.127739   69.066208    9.275611
H    1.806620   85.046219    3.722330
H   48.637680   93.460594   99.835876
H   93.420708   34.097729   51.341343
H   99.676102   21.623253   22.588205
H   48.245209   73.738258   38.645947
H   10.359719   92.362381   49.659492
H    5.613496   29.925714   69.699760
H   46.960423   65.319725   35.303959
H   48.760311   48.453484    6.976973
H   74.310944   91.806511   64.200684
H    4.738554   50.863132   27.734928
H   55.338821   59.885338   43.299164
H   28.513767   38.602917   33.838726
H    8.925449   50.111771   11.436525
H   74.804817   22.295401   15.715525
H   12.149824   89.261330   81.133675
H    8.457893   92.525406   60.410606
H   30.554966   42.150150    4.351357
H   27.330481   37.842888   66.506241
H   70.459488   33.157585   86.375298
H   74.380806   44.005531   20.828648
H   86.676315   72.209930   56.423031
H   60.895176   22.083593   52.489208
H   44.951832   63.269844   50.689789
H   43.093391   54.626457   88.618431
H   34.312943   67.886360   87.568306
H   41.014973   69.024323   36.789696
H   68.340485   60.151421   20.911339
H   91.085495   19.386747   85.371567
H   10.173318   23.909149   41.620110
H   65.790489   40.734150   69.578041
H   95.196579   55.561649   10.906597
