100
TIME:    6.103, STEP:  6103
H    4.601727   62.345970   93.558548
H   31.924244   35.576710   62.920620
H   84.668777   12.978354   51.704922
H   82.500977   81.206268    5.635934
H   40.507034   61.939789    0.228787
H   33.379597   94.596260   83.147087
H   33.112370   73.442223   67.715630
H   40.202530   16.589481   47.837193
H    3.604538   99.514709   15.924441
H    8.065756    4.013704   46.674870
H   32.568832   11.809896   51.877159
H   22.905945   29.602283   58.510719
H   54.621780   92.529457   18.596855
H   52.896568   86.264717   21.680805
H   54.732841   24.882797   57.408131
H   56.135666   77.938271   26.438923
H   33.340248   85.636803   28.968512
H   31.576780   97.867264   87.963905
H   40.322742   34.381943   84.891830
H   28.091919   76.207314   31.853205
H    2.116051   48.644939   91.597725
H   47.480896   52.185806   99.551483
H    4.258775   44.986916   57.736633
H   52.001797    9.837862   53.812244
H   11.306432    2.160492   81.611916
H   18.725405   46.240181   16.519077
H   35.810204   88.782486   21.059286
H   17.588638   41.307106   68.507828
H   43.874977    2.804193   68.680115
H   35.008518   39.790672   68.559616
H   56.248459   69.322578   26.528999
H   51.104343   83.892166   34.278755
H    0.243539   21.957640   47.603394
H   35.968651   14.419093   14.641687
H   29.067818   97.579109   96.358246
H    3.161294   63.441917    0.238376
H   65.155190   81.029907   89.357948
H   11.745256   47.266941   53.112377
H   87.462494   48.442070   52.886101
H   88.358994   40.840954   18.205378
H   18.154797   65.589226   86.129738
H   85.886307   65.536057   91.528709
H   63.809551    0.097859   42.300011
H   89.646820   15.081503   77.454430
H   27.266045   91.099380   78.360336
H   99.347038   79.322220    7.955309
H   89.414352   56.740067   84.048103
H   56.565350   58.228897   46.196964
H   43.425606   26.999504    1.021731
H   53.876148   23.622915   56.811134
H   43.082531   80.438065   17.762310
H    1.727522   97.426346   73.412117
H   35.466976   57.395996   48.416767
H   35.359955    7.624515    1.125787
H   54.865166   93.442413   52.258160
H    1.197038    6.113959   84.866272
H   83.155373   13.447410   36.433617
H   71.613678    0.534132   56.356430
H   71.606644   96.635262   42.954720
H   56.282631   96.884186   90.026756
H   44.682880   94.754654   38.557751
H   82.310524   71.136215   19.211884
H   88.393196   90.824989   14.969421
H   62.123009   75.008743   61.446438
H   74.562576   73.408463   63.914860
H   26.429203   38.874779    7.040542
H   97.912918   59.356678   61.715164
H   58.789818   66.574379   57.961292
H   61.076588   11.263664   77.463715
H   54.029106   55.106491   88.881958
H   28.235455   80.152771   88.938759
H   70.746048   48.978348    3.454471
H    9.063919   16.427635    5.264984
H   95.860329   63.158817   40.533501
H   56.419895   37.341831   64.046890
H   69.939293   98.717339   85.274811
H   21.067444   97.578224   98.982536
H   18.710369   51.660889   51.486664
H   54.172619   35.592289   85.773232
H    0.228698   76.560188   95.142357
H   30.298540   92.419998   44.750690
H   99.260040   84.049606   76.424950
H    3.902246    9.182454   11.161818
H   70.025276   34.406395    6.002952
H   55.163918   67.140221   56.134964
H   10.828197   33.226837   65.594040
H   74.760292   59.614967   14.558096
H   54.182030   16.705080   32.299171
H   82.337265   54.366737   78.276131
H   26.751223   58.183781   42.384300
H   73.782555    2.976799   62.345989
H   29.859095   54.483093   49.811111
H   76.667587   10.638677   90.958939
H   37.098843   83.435127   38.314865
H   51.075066    3.059276   56.326298
H   98.004333   54.730560   52.221100
H   78.175041   17.919012   86.200027
H   26.497126   88.435059   56.362122
H   17.980011   63.157932   33.847069
H   18.292543   22.022392    9.818677
