100
TIME:    7.725, STEP:  7725
H   94.912346   13.601737   92.073563
H   87.131393   23.469975   65.192642
H   12.556620   29.670898   32.659985
H   82.773224   14.380295   16.728737
H   25.976362   91.950157   56.248489
H    8.222426   92.839027   43.778877
H   48.102200   82.966782   94.558212
H   12.716530   56.911686   98.909279
H   63.732628   43.566193   13.825272
H   63.762581   27.304552   10.183582
H   81.694351   77.074799   95.638626
H   61.001656   10.904823   43.054741
H   51.152153   94.402283   57.416866
H   72.585487   81.265266   45.116581
H   74.433846   79.997757   79.406036
H   90.917160   36.072327   91.798126
H    2.908425   92.920059   76.625580
H   66.262756   18.940292   31.739532
H   65.580643    2.424799   70.343582
H   84.391800   41.763645   42.286507
H    5.864258   87.169006   47.572529
H    2.983612   54.339035   61.423172
H   82.602318   31.795393   11.328397
H    1.293651   29.241671   33.347832
H   53.293648   73.529633   93.590797
H   11.183331   98.370468   63.926620
H   95.943298   21.357302   53.246342
H   80.728355   17.016577   22.119272
H   79.143379   49.964252   92.007805
H   97.204651   99.645340   97.504387
H   20.082266   14.771664   98.201668
H   53.518459   39.077244   84.122139
H   14.495197    3.285043   93.725960
H    4.500936   65.772560   46.308792
H   88.701653   74.779137   95.046387
H   44.158482   90.483658   95.139809
H   20.727352   21.629412   17.164946
H   44.703323   17.579609   67.572014
H   18.996532   13.102728   95.702797
H   35.584969   88.994614   45.821785
H    7.302913   21.246885   24.342131
H   49.193062   71.896744   74.334099
H   77.768585    9.827845   59.457211
H   86.076355   42.306236   36.045055
H   86.569115   27.103649   17.159157
H   78.408745   10.257686   14.544931
H    2.087496   44.950325   99.615700
H   56.659115   74.934982   46.556759
H   90.840767   92.666084   36.320435
H   87.927979   48.312878   43.400558
H   42.971157   23.844831   34.859238
H   80.563354   46.916409   66.938660
H   69.112389   66.800903   54.214912
H   97.801483   81.164337   72.699417
H   25.719196   35.586838   66.054306
H    3.217237    4.407773   29.649567
H   85.983383   66.644798   90.699150
H   50.836105   47.356651   14.576367
H   99.528160   65.178169   18.437702
H   49.247688   21.557034   43.893211
H   46.999828   19.323689   12.094874
H   24.742592   56.038864   45.823090
H   98.510338   80.142731    3.744019
H   73.502556   83.844406   17.404247
H   38.941292   43.861629   14.964545
H   26.788624   58.240685    2.946224
H   67.777252   15.436256   40.025799
H   46.747231   59.338493   35.502274
H   41.915657   94.717110   75.734894
H   86.915489   36.650837   85.459000
H   76.728584   69.793167   69.485451
H   37.132534   95.099022   22.285929
H    3.306142   36.202389   63.683674
H   60.147770   60.503048   44.159882
H   34.591507   39.689846   87.016464
H    8.278914    2.672338   76.134193
H   68.377647   57.183060   27.744955
H   94.914871   45.603130   41.062984
H   31.954977   30.827961    3.867325
H   20.683880   88.201744   55.405525
H   62.044670    9.201028   41.695602
H   20.974651   94.568390   40.730663
H    6.497823   36.307407   65.634003
H   81.616600   73.204102   57.856953
H   76.186737   65.674339   98.901009
H   73.502304   92.805893   78.230591
H   83.090065   41.682045   91.901085
H   80.268272   86.911987   15.481712
H   15.999505   64.056557   65.010262
H   83.345184   91.447647    0.368313
H   40.161549   90.559532   96.599655
H   49.870670   76.473328   80.717873
H   80.640945   59.309071   16.390688
H   93.857643   81.839684   47.683636
H   23.031612   57.772064   93.599426
H   31.974945   90.680664   68.442589
H   49.427971   11.001542   92.916603
H   23.366282   68.690987   23.802259
H   40.711754   70.160622   97.986778
H   19.041315   80.396866   53.567181
