100
TIME:    1.781, STEP:  1781
H   96.881012   58.694534   97.515457
H   51.728508    1.307281   90.345238
H   10.368635    2.036820    2.428449
H   81.775543   59.273094   42.540829
H   79.218796   15.512517   17.414505
H    0.398441   99.278603   55.124737
H   59.626698   81.599510   29.729378
H   79.903206   42.680683   44.668930
H    9.847618   15.057629   87.979408
H   26.169386   41.955879   77.432793
H   34.590744   37.904758   68.193710
H   87.864090   12.962826   66.155510
H   29.973335   53.954445   48.111687
H   66.896919   99.586311   92.774391
H    2.162926   10.941271   65.163162
H   29.914871   55.957664   85.202896
H   80.877731   99.777359   35.510582
H   39.203636    8.090586   37.802536
H   73.001717   53.070030   57.191006
H   44.534157   67.990341   37.591377
H   58.589569   78.913452    8.905300
H   33.121830   46.450653   67.607033
H   61.965111   80.137459   81.393250
H   53.567329   58.042027   74.802322
H   65.885124   44.924301   49.702644
H   38.492626   74.539276   22.239485
H    8.500782   68.444962   35.308285
H   82.266098   39.570766   25.642290
H   49.897064   10.678437   72.983635
H   69.284843   46.760330   24.972713
H   86.161232   81.756241   68.479340
H   78.210663    3.307223   34.387962
H   95.808426   38.175392   58.243500
H   53.352943   10.504669   96.721130
H   36.502281   24.290352   33.178764
H   27.406029   24.390432   14.517163
H   50.619659   39.312843   48.801090
H   90.379616   26.356754   48.120945
H   70.654739   42.488899   71.427261
H   95.443352   45.452244   78.160110
H   13.530144   17.293879   84.304123
H   71.555054   91.789421   86.474548
H   26.581633   74.180069   30.117180
H   65.630363   42.620270   54.870144
H    2.167384   61.619343    8.514864
H   55.110172   96.886635   90.402596
H   54.885792   21.815248   42.841743
H   56.334530   13.720442   78.776131
H   17.091635   84.946983   73.430740
H   63.243061   57.857357   59.098034
H   43.408741   97.699074   72.195435
H   91.686745   98.475204   57.143749
H   45.824455   32.335571   99.431419
H   35.448643   78.148827   10.407476
H   98.973892   14.636580   15.519192
H   95.794662   10.660202   31.997360
H    9.160257   38.157158   25.375479
H   93.440277    8.693923   67.681107
H   30.740486   14.019855   74.755753
H   41.490627   64.682693   12.953902
H   72.047470   95.747993   75.534386
H   35.699982   11.367107   14.768989
H   95.036499   85.702171   11.374726
H   65.338745   51.482689   78.787498
H    3.012110   18.598255   61.423176
H   91.935738   53.734230   51.491970
H   44.675919    9.937470   53.049328
H   57.339943   19.394547   51.344700
H   45.667870   21.815018   48.532089
H   66.463928   37.722160   97.982849
H   65.477592   74.221428   40.787144
H   27.115812   92.417007   87.018303
H   90.866714   30.210758   16.080639
H   90.994164   36.674271   97.358437
H   48.040146   31.177851   36.410259
H   67.765480   21.717615   76.090202
H   28.657877   72.182602   22.546198
H   15.654948   34.265198   12.797080
H   46.921715   48.285007   37.549141
H   12.181934   11.956446   67.486458
H   45.734837   47.706921   86.435158
H   74.954041   55.858841   37.851761
H   30.486607   36.983124   99.531433
H   72.687691   64.564064    0.755253
H   65.609543   37.481888   75.104507
H   10.299229   74.475243   65.461296
H   86.103676   73.859711    8.468126
H   84.625748   62.703415   77.229225
H   92.642525   95.009407   13.628578
H    8.873709   36.000526   87.884209
H   96.908363   69.599121   71.073196
H   10.063097   29.453661   67.455696
H   99.557014   80.996140   56.698227
H   19.367825   21.263041   46.901863
H   25.799980   90.198151   57.011864
H   41.024902   25.401083   75.457901
H   21.234940   69.888451   34.762436
H   13.404366   31.401825   27.540066
H   23.869755   44.527485   95.865524
H   49.847488   32.956059   26.150227
