100
TIME:    5.722, STEP:  5722
H   30.366465   97.285698   93.907364
H   42.446846   14.929753   38.895924
H   78.116852   85.567902   56.178486
H   82.437027   96.902985   26.520195
H   43.919617   31.400957   10.558771
H   39.289120   95.009026   45.415401
H   53.079174   47.715206   37.920933
H   70.148376   83.627548   82.818962
H   12.970253   36.146500   39.907471
H   18.473551   98.542809   31.757151
H   68.008530   96.479843   88.577446
H   37.448662   10.504822   85.631157
H   78.934250   15.569740   56.455009
H   71.761696   87.439064   92.686241
H   50.099403   58.915298   75.722015
H   71.454498   11.262057   58.065155
H   63.977913   60.435261   94.284576
H   23.429022   16.405525    1.172283
H   34.389965   18.397455   64.817474
H   38.355827   84.299843    5.912957
H   24.725121   86.574036    1.939828
H   10.954056   51.680023   31.997101
H    9.346133   48.085564   68.637131
H   87.401787    5.280001   82.108078
H   24.932304   32.376671   78.798134
H   20.462217   57.504028   52.346008
H   68.665344    4.619298   13.498941
H   49.735584   23.523308   55.913704
H   35.590599   68.236603   86.690643
H   20.400101   49.220329   38.270767
H   41.252281   35.158512   56.672508
H   27.047672   94.420593   69.549858
H   73.407951   49.833321   13.279904
H   19.869701   49.335533   30.691580
H   38.538620   26.380621   73.157227
H   70.041321   33.600716    1.436585
H   28.613590   94.982544   59.336529
H   27.492039   54.240353   26.227390
H    3.543433   56.743889   89.808266
H   24.245333   76.509270   88.229576
H   44.193130   52.516998   77.153542
H   17.995159   64.041962   72.076408
H   60.527775   97.813080   14.780465
H   13.975384    8.686544   40.202744
H   60.313656    6.132419   45.757671
H    4.263878   72.055222    6.407439
H   86.437790   36.020401   80.391350
H   56.545002   54.304718   22.622824
H   32.289658   58.552811   16.220612
H   45.885357   17.823851   83.459885
H   43.108692   17.221323   13.746160
H   83.211342   32.780300   98.422218
H   27.563389   55.186829   70.545372
H   44.182091   13.841432   84.312950
H   85.200523   60.054569   49.017078
H    0.722477    6.514734   97.836411
H   59.000473   24.441093    0.197155
H   99.984039   36.515694   66.169785
H   41.558327   80.537407   72.202934
H   81.425552   67.601089    0.863298
H   20.648777   12.472965   68.262749
H   95.832954   74.682510   36.452110
H   62.528332   16.823904   41.095734
H   35.958908   72.933289   71.789551
H   59.440529    3.837070   28.434320
H   49.834404   57.815483   84.512627
H   28.482101   46.185970   43.320938
H   85.107979   44.785007   39.747288
H   42.086468   38.639900    1.357735
H   46.311554   35.941963   89.684235
H   40.334007    6.075771   93.508247
H    2.162594   61.622925   75.560623
H   33.906769   35.272415   15.034737
H    4.247967   87.273521   63.171654
H   38.051830   36.798260   35.164932
H   60.933037   74.300224   10.911940
H   86.475578   30.600828   92.244576
H    0.810292   76.573601   30.444345
H   35.903385   36.711407   81.523491
H   18.912643   97.314735   27.965649
H   22.842600   88.478378   21.979464
H   70.662949   81.578827    8.295375
H   79.804466    2.811215   74.878464
H   43.813995    1.802703   40.800434
H   73.715111   90.970161   93.068756
H   19.598011   19.231926   39.136353
H   49.314171   87.316765   96.390472
H   48.054497   47.193768   36.249512
H   74.430771   75.580559   81.392220
H   60.437893   73.858322   28.765600
H   58.190483   82.402710   54.299969
H    1.668954   25.828180   42.552834
H   52.244659   99.206490   61.495625
H    0.277403   60.320263   12.624671
H   57.661873   37.187954   47.571018
H   66.535324   69.776154   71.900131
H    8.417173   96.054726    8.111753
H   27.232546   69.581558   64.009911
H   36.130066   61.515591   65.760658
H   94.627167   31.799412   46.522709
