100
TIME:    2.724, STEP:  2724
H   33.108795   72.216667   96.652115
H   25.497292   52.436684   49.829060
H   26.577887   69.879562   91.362129
H   81.933823   20.421618   90.851257
H   70.772430   91.098129   91.846512
H   85.779060   98.256981   48.513081
H   10.206171   45.275772    3.473234
H    5.785271   24.262796   58.086216
H   86.666817   24.392014   28.620541
H    0.402216   55.495964   14.357699
H   46.875183   75.848648   77.359528
H   51.874680   60.230698   99.032280
H   69.987602   96.901428   54.384949
H   20.204491   96.679726   64.538918
H   13.634201   26.708387   19.831648
H   91.997711   73.478058    6.925387
H    5.059227   62.140686   21.364817
H   59.355484   62.232521    5.107681
H   87.692924   92.627487    6.874463
H   19.130310   47.966564    1.795246
H    2.630675   85.034515   83.308472
H   23.532883   47.700134   87.304535
H   49.374702   72.468102   54.413803
H   65.952393   69.351807    4.765033
H   32.157219   70.134399   56.659744
H   34.168720   46.441982   33.851250
H   27.184891   29.243093   54.021229
H    2.699240   83.586830   56.814556
H   70.401443   96.234871   28.406687
H    5.444180   23.421310   99.939262
H   23.261053   66.320953   93.864738
H   37.752113   77.249474   47.089729
H   62.233662   69.181526   43.196388
H   93.196190   24.084305   56.992996
H   13.059857   53.006653   90.601555
H    9.395368   98.468681   11.276032
H   41.066010    4.776316   23.105711
H   51.402039    9.097103   14.667234
H   30.091766   22.065096   80.336563
H    6.623442   57.172211   52.353519
H   49.084820   49.649265    6.522174
H   86.803551   34.112869   30.776423
H   34.704243   79.834961   98.231407
H    5.413789   58.426628   47.071960
H   20.369135   24.416485   89.210670
H   42.944241   14.872913   94.230080
H   63.014957   72.977936   51.607368
H   56.384892   23.429445   37.123589
H   44.653839    6.848539   35.812401
H   83.013878   72.206306   93.145050
H   43.336796    6.658628   82.138260
H   37.513325   10.971970   95.235558
H   65.385841   37.803406   44.664200
H   13.613277   62.766365   52.018707
H   23.902435   97.305145   23.519606
H   96.974564    9.669157   99.895416
H   68.940315   10.947152   15.062641
H   23.221771   19.639408   43.392410
H    5.113739   53.864635    2.359850
H   79.262466   37.163960   86.133553
H   31.533182   51.892193    2.012128
H    2.234280    2.587996   72.103455
H   59.001034   21.396967   46.681320
H   30.091177   56.612381   53.186359
H   40.442516   43.282871   49.242409
H   34.005470    6.854766    7.249256
H   69.016853   42.537937   98.576248
H   92.200325   73.325500   96.425552
H   92.665276   54.057060   89.387703
H   85.572571   85.152412   95.997162
H   35.534004   10.058454   29.473335
H   49.360428   61.120850   56.061157
H   29.382200   83.566154   91.902336
H   70.245171   77.000076   41.313133
H   93.506981   32.521023    7.895307
H   90.054100   82.155998   12.639366
H   14.276148   90.448624   39.225132
H   59.958797   72.605949   64.877975
H   92.139038   45.517483   48.072388
H   65.935249   60.600628   86.246231
H   64.188705   57.462688   42.795460
H   45.709183   62.017349   58.998390
H   90.147598   52.724731   89.347504
H   37.557301   45.257782   14.622467
H   19.693157   78.497101   83.691246
H   88.597473    9.110645   30.946163
H   49.084526    5.295944   53.434174
H   99.806183   87.204498   67.415901
H   12.213127   42.503807    5.914012
H   25.500027   97.201004   21.594730
H   35.499939   20.520370   90.987625
H   79.839493    0.367510   85.427605
H   60.061039    9.254496   29.651718
H   10.512190   78.464165   10.484387
H    9.493603    5.729555   78.681755
H   18.912857   88.163948   26.751007
H   46.383804   24.005123   80.529716
H   16.866278   39.430908   12.449986
H   78.948448   48.592388   16.874001
H    8.410904    8.735029   35.325836
