100
TIME:    2.008, STEP:  2008
H   81.529694   37.877426   97.307632
H   45.414101   13.614950    4.664244
H   14.270544   18.367527   99.763680
H   81.813644   49.920982   30.097458
H   77.185577   33.707569   11.259962
H   96.879158   99.032677   77.605125
H   47.730465   96.926582   47.481071
H   62.061455   62.318386   23.825844
H    4.267525   93.232285   73.691460
H   19.966684   45.215263   86.320763
H   13.475754   47.038654   46.328487
H   79.201263   24.341112   49.997139
H   15.533862   40.220695   25.550335
H   55.657066   98.886635   10.049076
H    4.924252   90.664825   54.250816
H   20.787678   36.102180   66.360123
H   62.627258   14.789253   56.177017
H   44.054611   97.051430   29.932678
H   76.538200   62.593597   69.150330
H   38.418915   63.169109   53.046608
H   45.119064   56.315388    2.744164
H   54.888004   46.750267   48.277924
H   58.934334   78.291283   74.898727
H   32.476585   60.764530   57.943649
H   57.766106   26.921486   51.377365
H   37.451771   67.774582    0.962814
H   88.926765   59.008801   39.812885
H   63.111671   50.166363   33.145496
H   54.832901   31.273111   62.252953
H   77.989235   41.142136   43.018490
H   95.090767    2.112748   50.517658
H   92.543640   97.035179   13.373421
H   11.798027   21.567280   78.693451
H   62.944054   89.701614   87.157730
H   30.859665    7.130734   47.000839
H   47.142651   42.223156   13.736955
H   72.391693   30.999750   66.687866
H   80.996330   22.201992   64.139046
H   60.449944   37.643120   49.670334
H   74.061653   24.200754   96.019180
H   98.017540   25.082975   89.652145
H   51.153595    1.976589   97.139420
H   28.536917   75.541321   46.512917
H   51.134590   46.425194   77.065109
H   82.476097   52.663830   27.940413
H   52.181576    1.216307   91.323952
H   57.282703   34.061317   44.781441
H   56.346653   16.057604   92.821617
H   23.726439   66.145775   64.376511
H   68.002525   61.312443   43.221958
H   43.391422   75.783958   74.588882
H    2.718565   77.412170   42.240986
H   50.533417   33.651794   86.248405
H   30.192410   74.446083   20.423761
H   80.903534   34.536770   17.445143
H   96.078690   10.421637   24.269745
H   23.550592   31.607216   46.965004
H   76.537201   87.256546   61.834305
H   48.642853   23.611742   57.328987
H   26.511662   82.129578    6.497914
H   86.366592   85.190498   57.835255
H   27.643780    9.253790    4.497612
H   10.433701   70.222694   95.801437
H   80.925598   52.717514   72.625496
H   12.022285    0.467866   82.562622
H   77.990700   42.449348   64.913979
H   26.463282   17.785116   64.008621
H   41.659569   32.377502   62.196613
H   56.982193    5.504242   34.294365
H   71.063782   49.140396   97.504852
H   58.269539   58.776001   38.064640
H    8.398776   84.883362    3.637563
H   76.066132   18.983028   10.259815
H   85.999443   22.308973   83.867149
H   58.983849   31.500845   53.618145
H   73.130821   36.266464   60.815449
H   49.268753   52.507515   26.561544
H   26.319820   19.422052   25.333996
H   57.803070   47.619968   40.081139
H    1.049160   99.593475   47.930153
H   50.177090   50.055340    0.002647
H   91.985275   57.341324   18.869837
H   44.849026   40.772461   21.151829
H   88.302254   83.988747   80.021271
H   54.556732   23.282265   53.099335
H    5.074291   82.812477   81.224800
H    1.264497   57.354965   19.292631
H   88.279999   44.529144   74.866951
H   97.353218   82.370201   11.771578
H   88.804214   26.660538   95.999763
H    6.198261   81.857315   75.867020
H   26.859186   46.525867   71.781914
H   14.121246   87.798935   74.259415
H   41.308918   35.032482   62.206421
H   21.874691   69.865967   62.228264
H   59.774155   16.437777   63.733124
H    3.217095   82.915596   21.707581
H   14.237830   33.334595   23.907463
H   13.056690   45.505993   76.849564
H   63.944931   27.125568    4.286397
