200
TIME:    0.849, STEP:   849
H   28.184336   60.453854   25.753099
H   33.392029   41.768864   14.620579
H    5.373565   95.793983   75.344719
H   38.370667   84.091896   28.574497
H    8.744234   99.164261   44.902546
H   69.806763   36.285778   47.523907
H   12.182548   54.872025   61.439030
H   16.535976   15.183131    3.455694
H   12.160072   78.376244   32.862869
H   89.423248   66.367538   72.051079
H   33.420410    7.603454   12.206642
H   33.296097   58.277927   41.760044
H   26.121326    7.220018   36.331749
H   75.619492   55.776340   71.611839
H   90.219559   76.632706   41.480160
H   11.549340    0.874031   41.185589
H   12.855805   36.240883   85.863770
H   22.101362   12.444118   32.678223
H   85.287941    7.654270   51.448872
H   91.993759   71.341331   13.862812
H   65.393707    7.158796   97.939751
H   76.471123   72.092339   47.106224
H   76.768478   58.113533   34.523590
H   21.507524   93.611511   89.676453
H   29.716667   37.197025   23.679600
H   18.156969   89.363670   86.842712
H   10.689489   71.016533   73.567871
H    8.487094   95.251984    2.333716
H   36.718498   38.018867   34.772327
H   65.529381   37.079033   77.559570
H   12.566394   76.892403   16.939383
H   20.851593   77.779770    8.597190
H   12.408463   22.089581   80.617882
H   76.270897   64.242340   48.934975
H   18.762676   64.636642   29.586121
H   13.167715   36.036427   86.459686
H    3.743702   61.284615   90.526894
H    2.791533   60.508598   87.786125
H   30.531044   24.593596   57.968632
H   84.242348   37.184132   39.907318
H   80.685516   76.774681   21.738338
H   43.651779   30.336376   21.772631
H   65.736588   73.791916   72.941833
H   35.924545   92.812248   40.528580
H   49.585285   94.875710   66.340919
H   32.489689   97.989426   49.311180
H   91.450516   96.375443    9.530986
H   75.289474   65.541313   25.754288
H   10.632567    5.641721   61.605408
H   40.323921   20.549791   79.948357
H   63.721069   62.787903    3.733765
H   97.858437   46.180035   76.635002
H   68.603111   77.006554   15.885903
H   13.342650   95.035370   90.721634
H   51.421219   62.840965   71.077682
H   97.499077   57.346119   98.590149
H    3.692502   19.050026   43.121891
H   74.062180   72.736671   94.310982
H   15.330654   86.241898   21.855610
H   29.018028   92.569496   55.736244
H   48.447163    3.494658   24.442999
H    0.882053   17.867559   53.735062
H   88.225105   37.821800   64.338974
H   38.882072   66.021194   17.264812
H   81.138130   85.157944   42.833118
H   14.849936   40.220848   43.809982
H   63.426857   10.315868   98.417305
H   93.931038   92.834526   99.328705
H   38.184372   14.083009   54.271591
H   41.731331   52.244461   50.950069
H   58.198002   87.125298   89.571274
H   15.024687    7.814457   40.501846
H   96.822403   36.191616   79.103142
H   27.705994   95.578537   78.302467
H   86.560532   10.729871   38.977562
H   68.706955   97.576431   58.897915
H   92.853531   52.621822   63.531204
H    3.998868   17.059498   27.142815
H   16.163433   56.822136   21.440681
H   59.098404   87.270500   65.380219
H   69.215469   19.809330   92.092178
H   53.415184   57.637566   69.030418
H    8.623711   20.346519   72.461151
H    4.814660   81.773643   13.700035
H   17.221607    5.763801   40.523510
H   41.824177   64.466385   15.105430
H   63.149914    4.053130    3.167525
H   70.267021   95.878342   34.412220
H   84.326340   73.539467   79.363953
H   20.393833   13.345025   48.165539
H   15.714454   40.150085   78.045692
H   79.813354   93.878708   11.656101
H   76.190865    9.993704   78.385185
H   32.719231   72.554214   85.826706
H   40.555786   48.688309   93.303940
H   44.051949   41.325283    0.427906
H   87.566719   93.214333   24.557312
H   94.454453   38.640224   55.247295
H   23.218391   63.677437   55.039455
H   77.793350    7.822847   27.399088
H   37.037685   97.264587   97.616768
H   13.217367   85.870186   62.505325
H   35.803398   14.913305   39.012749
H   51.138710   69.063889   14.347074
H   24.531445   19.469479   44.831993
H   11.533405   96.956520   15.378077
H   90.206238   36.919781   52.537315
H   61.162415   57.656887   95.192909
H   88.273392   32.402348   28.580845
H   23.929983   19.569273    8.517866
H   55.207088   90.774643    1.224327
H   10.446721   78.659607   97.448090
H   46.516735   87.341682   80.688766
H   61.161217    6.268099   59.250187
H   43.527336    7.327891    5.419132
H   89.185120   87.982658    6.408153
H    7.535826   17.018108   91.279648
H   37.681324   56.972092   21.805199
H   41.989964   80.578056   53.441734
H   86.854187   58.829586   72.061676
H   46.910713   25.806362   67.563965
H   92.012733   13.053265   66.101707
H   46.918709   96.137466   42.095779
H   95.104988   45.404194   91.195946
H   58.693581   93.874039   72.671417
H   70.033546   79.014732   13.772856
H   80.248985   52.033463   47.535187
H   62.107727   92.346367   40.146030
H   99.962204   30.439293   71.011765
H   97.263145   21.262831   76.876801
H   73.192535   63.441010   26.684666
H   58.324463   92.091568   23.688702
H   90.449135   12.223717    1.905930
H   71.058784   28.617035   57.202168
H   34.511074   90.358414   28.432213
H   46.137840    0.845255   74.709595
H   69.900963   88.116386   85.655777
H   96.412910   45.205963   73.575882
H   62.231461   52.850304   71.406052
H   43.777832   79.882729   78.535660
H   80.767509   45.159496   34.582352
H   29.202631   59.514721   60.443665
H   35.428310   67.969368   78.842949
H   29.807396    4.482867   88.216194
H   68.927803   49.569603   68.982590
H   68.254440   72.467529    0.678939
H   59.134789   94.110817   42.921341
H   26.023331   50.749390   65.330956
H   81.465912   39.365467   91.890327
H   28.875193   95.323654   67.206825
H   54.755314   71.652618   46.746681
H   59.423336   90.258148   29.067646
H    4.467145    9.067066   82.086617
H   26.008383   15.121581   60.902672
H   37.761688   69.963074   71.770279
H   81.580856   45.038952   72.798256
H   65.685989   79.147804   87.966843
H   54.704449   26.888725   23.991762
H   84.508820   99.439514   80.019440
H   56.851936   32.095398    1.611844
H   59.938061   59.667831   67.223526
H   15.010078   19.900301   30.268101
H   91.433784    8.017607   36.978828
H   33.628990   38.070244   45.144016
H   53.123077   42.752789   15.808400
H   22.406206   45.061897   58.972748
H   64.413132   87.716805   58.677734
H   24.164215   58.640781   73.195663
H    2.348510   26.189724   35.418903
H   54.264805    5.863941   83.545410
H   67.730652   12.876241   35.924965
H   25.124107   42.826740   59.328251
H   49.439701   51.285141   73.288467
H   63.726719   59.972141   88.368675
H   43.132599   90.455292   70.596268
H   19.706993   50.954044   23.880573
H   29.161499   71.946404   12.382526
H    7.127491    9.781647   72.667404
H   60.026573    7.221924   62.012711
H   57.331379   60.987801   94.976013
H   70.299217    7.013532   27.560061
H   31.511326   30.849453   91.848717
H   37.593857   89.524117   18.132561
H   64.743370   26.347214   99.594749
H   93.398445   61.920158   75.887833
H   12.009513   41.362579   87.002174
H   52.557709   94.093292   12.759148
H   61.163292   93.020821   46.836452
H   88.981453   63.889168   73.503571
H   60.688030   54.960499   73.397293
H   76.912056   10.875660   74.952522
H   42.660465    1.479387   16.867388
H   17.627750   32.012356   71.758026
H   24.464359   87.835930   45.586487
H   63.995541   27.053778   19.824183
H   76.814957   11.877812   21.222776
H   13.509370    2.165500   24.022017
H   11.210410   85.302567   29.791660
H    3.792160   13.315926   50.780449
H    1.655898   14.359893   89.287880
