100
TIME:    2.990, STEP:  2990
H   15.120955   47.823051   96.408585
H   18.098030   66.859360   66.608292
H   31.150167   89.016983   88.240883
H   81.978470    9.461740   76.271912
H   68.389893   12.419187   84.633957
H   81.655281   97.968803   74.856133
H   96.265038   63.238159   24.274834
H   84.878189   47.274380   33.662159
H   80.128029   98.816971   11.876694
H   93.132896   59.315331   24.774706
H   22.132507   86.551804   51.737057
H   41.721497   73.563980   80.097801
H   53.067619   80.808136   27.947552
H    7.033908   95.859840   84.780342
H   16.870110    2.948740    7.044957
H   81.302673   50.212799   84.845070
H   83.669075   79.735535   45.579845
H   65.039513   49.297005   95.885437
H   91.836998    3.785842   20.887621
H   11.964432   42.318691   19.905695
H   86.845886   58.554237   76.087799
H   49.034561   48.053253   64.652161
H   45.823219   70.304741   46.803482
H   41.238129   72.542053   85.010262
H   22.644302   49.038002   58.622192
H   32.949039   38.517101    8.919043
H    4.247383   18.185804   59.299747
H   80.254051   96.002815   65.607658
H   76.185287   20.368181   15.833422
H   15.643533   16.837875   21.084873
H   33.729977   90.174744   72.819664
H   54.547585   69.898918   22.464760
H   80.969452   49.719398   67.159767
H    4.435321   99.707191   45.786545
H    6.447443   32.899170    6.799537
H   32.523617   19.364592   10.361779
H   66.578041   95.034653   44.065548
H   40.408676    4.228724   33.437366
H   18.862991   16.270090   54.558884
H   81.568527   32.269211   73.282021
H   30.905958   58.775562   12.789062
H   62.896996   46.051941   43.273483
H   36.995457   81.430084   17.444752
H   88.427795   62.885262   73.079674
H   97.295540   13.922258   11.973163
H   39.512493   19.946461   95.309731
H   65.094040   87.443634   54.162407
H   56.399097   26.168146   53.582176
H   52.428543   84.817741   25.201220
H   88.590721   76.252968   74.539337
H   43.316502   80.978119   84.942917
H   50.440723   86.289642   77.774437
H   70.901802   39.345764   29.214417
H    7.453991   58.425438   63.756866
H    2.724466   20.619926   25.779360
H   97.307388    9.389605   90.840149
H   85.804787    3.271394   40.361397
H    3.414962   94.518707   36.541092
H   26.091843   65.103561   81.939720
H   61.708260   57.610355   78.567879
H   48.312447   39.522884   81.271622
H   92.793663    0.111608   60.068336
H   77.052147    3.250517   28.437210
H   48.357872   58.059357   45.963657
H   51.001583   22.037361   74.014702
H   17.664589   93.631172   22.976521
H   47.675484   51.733234   11.419192
H   73.825966   88.538025    9.141891
H    5.922198   34.943993   72.705879
H   90.962708   98.530342   95.437042
H   27.086971   91.959785   26.282074
H   27.428286   52.292877   75.536285
H   12.037771   70.407402   85.083488
H   64.392326   60.167610   25.503960
H    6.332283   32.900524   28.060627
H   96.341240   99.203117   94.740875
H   38.427517   67.394424   43.929325
H   72.455963   55.212803   79.566910
H    4.895324   44.736156   51.041428
H   52.890144   46.112606   63.330032
H   69.392136   60.214581   58.693928
H   65.668350   63.754532   36.755959
H    6.976192   57.165100   14.682495
H   55.856571   68.019745   90.326782
H    6.740729   61.859661   57.905449
H   82.476746   18.881283   49.417934
H   66.850060   85.955559   66.118042
H    4.087290   65.907776   64.647774
H   17.733814   27.693403    3.737714
H    1.981813   86.258377   31.103573
H   46.385742   34.883381   96.605057
H   99.520798   20.371119   90.497093
H   77.119446   17.231230   50.225731
H   36.222790   94.598045   28.419376
H    4.894096   81.903748   84.794365
H   40.883347   77.659676   13.011730
H   25.270054   39.270412   65.231956
H   17.842428   41.695740    8.193787
H   66.276756   49.739010   94.592430
H   24.931627    1.906915    9.703010
