100
TIME:    4.396, STEP:  4396
H   20.038670   18.885620   95.121353
H   79.068855   43.077164   55.288620
H   55.317940   90.170250   71.742867
H   82.214462   51.535454   99.202522
H   55.796478   25.116289   46.510452
H   59.856121   96.445580   14.096474
H   22.576382   58.177792   34.225933
H   74.369362   68.910919    4.567129
H   45.565865   63.635910   23.374056
H   54.709038   79.503410   79.832947
H   91.349823   43.125019   16.304863
H   88.057091   44.039299   80.017189
H   63.549271   95.754768   88.213379
H   37.416405   91.526161   91.777115
H   33.973579   77.359070   39.460682
H   24.771072   27.238945   68.134705
H   70.606941   72.731064   73.573570
H   95.075172   80.922813   47.138622
H   13.737556   62.773125   94.961548
H   74.080315   12.462137   15.632700
H    3.411839   18.581356   37.928719
H   83.829147   49.919739   44.918259
H   27.051094   58.869835    6.574737
H   10.605507   89.404785   80.588089
H   72.358063   37.535034   69.005287
H   26.506872   96.697327   77.038033
H   83.007164   59.742458   87.191566
H   61.619144   61.630127   12.078803
H    6.757543   47.931301   49.370522
H   69.555466   82.038506   32.857491
H   89.065346   16.253620   61.581413
H   43.323254   31.055084   92.304329
H   80.006081   46.849724   93.823349
H   63.843018   70.855591   86.555199
H   71.498428   26.616356   92.414719
H   54.774281   29.742664    5.607532
H    1.433023   43.545395   54.852894
H   82.296913   78.503975   32.654949
H   59.517986   85.636833   18.307173
H   49.138985    0.643950   83.902771
H   34.815750    7.022721   45.913555
H   36.533707    9.152118    9.329409
H   49.106159   89.861450   19.001848
H   98.645218   86.442108   10.552693
H   75.334587   58.445717   32.288715
H   21.373257   46.763783    1.018037
H   76.078415   63.907310   67.664696
H   56.474186   40.647339   40.577477
H   93.531113   68.372040   69.117706
H   18.074886   97.642464   76.201759
H   43.209232   45.238319   99.767532
H   18.769785   55.824032   85.472595
H    0.057607   47.498230   47.556927
H   74.889488   35.480537   25.799206
H   90.778564   43.843311   37.737095
H   99.066605    7.909557   42.976593
H   74.938339   62.701988   74.083595
H   98.720596   61.739738    0.323382
H   36.979599   24.510952   74.000587
H   68.927002   65.680420   38.577888
H   37.004150   74.136620   71.648293
H   42.891991   87.024734   96.448059
H   72.505775    7.307631   32.023552
H   44.905266   65.710052    7.786518
H    6.806369    9.742409    4.949108
H   31.291756   23.734505    6.109437
H   34.869644    0.344927   79.300827
H   76.703911   68.949112   76.356819
H   75.999039   33.917801   84.523193
H   19.449678   69.250000   92.476410
H   82.439201   96.295685    9.413979
H   11.497225    5.630209   78.476921
H   20.364141    0.863735   49.036552
H   33.436733   71.193016   41.958214
H   74.119026   34.906460   34.645107
H   29.581766   89.315147    0.135161
H   66.084213   45.530643   68.794350
H   38.512402   63.278271   57.215866
H   72.315773   40.606289   66.733055
H   83.936981   69.539543   42.201836
H   96.895981   74.760300   42.727123
H   71.163094   72.936783   19.186792
H   95.930443   80.635925   48.597309
H   52.587051   88.334053   61.909248
H   38.281113   73.913216   21.609390
H   50.119724   70.528725   47.054855
H   60.753624   83.727905   33.161865
H   26.715746   53.339790   50.026497
H   46.913681   49.409660   92.237190
H   77.673569   28.412178   81.363037
H    3.925068   10.803596   26.297281
H    3.556211   26.102417   17.290514
H   67.245644   59.420242   58.953960
H   72.118515   79.883255   23.218721
H   80.586037   55.963539   17.102360
H   57.013168   22.138046   40.389946
H   13.668763   19.957836   84.370773
H   23.002081   53.666992   85.691597
H   99.297974   55.799725   76.826256
H   12.264231   65.822029   74.260117
