100
TIME:    5.892, STEP:  5892
H   18.870531   81.695793   93.751724
H   37.751717   24.142286   49.615604
H   81.040283   97.798584   54.182407
H   82.465561   89.899200   17.201920
H   42.396942   45.027206    5.949568
H   36.652325   94.824852   62.251720
H   44.170101   59.194927   51.215153
H   56.786713   98.335495   67.210899
H    8.791328   19.801743   29.206118
H   13.829653    0.983838   38.413364
H   52.195541    3.320099   72.201561
H   30.959785   19.025883   73.530174
H   68.086166    5.289093   39.562920
H   63.344185   86.915077    5.623028
H   52.166817   43.730057   67.550934
H   64.619324   96.393044   43.953827
H   50.307564   71.679817    9.760351
H   27.064505    8.133926   95.278847
H   37.037136   25.529642   73.774536
H   33.776131   80.689003   17.487329
H   14.637077   69.650818   97.325401
H   27.252121   51.905701   17.520020
H    7.076130   46.702965   63.773392
H   71.606956    7.313693   69.483109
H   18.852631   18.894386   80.053627
H   19.687262   52.478165   36.360519
H   54.005798   97.552689   16.872190
H   35.392094   31.458336   61.533592
H   39.287041   83.660492   78.654449
H   26.918159   45.012871   51.785477
H   47.943489   50.402119   43.222649
H   37.781620   89.722870   53.812096
H   85.381828   37.395119   28.594847
H   27.053120   33.756004   23.530210
H   34.313004   13.529388   83.509857
H   84.819305   46.915688    0.901942
H   44.918274   88.756958   72.731911
H   20.466164   51.128857   38.223316
H   96.367920   53.039665   73.333809
H    8.233255   60.594837    1.604291
H   32.574631   58.349594   81.158669
H    3.668252   64.708618   80.755913
H   61.992085   98.832520   27.059753
H    3.120557   11.539938   56.823761
H   45.568096   99.425278   60.304790
H    2.070098   75.297714    7.098090
H   87.765915   45.265396   82.022972
H   56.554081   56.055664   33.141468
H   37.258453   44.473907    9.438949
H   49.450802   20.411360   71.569016
H   43.097019    0.808529   15.538285
H   91.473213   17.005543   87.262856
H   31.089924   56.172546   60.672192
H   40.245705   11.067479   91.814781
H   71.665062   74.952225   50.463230
H    0.934232    6.335911   92.049210
H   69.777916   19.535851   16.365822
H   87.325348   20.460997   61.791122
H   54.965385   87.720177   59.152550
H   70.206528   80.667038   96.028099
H   31.372997    4.567444   55.008320
H   89.799324   73.100174   28.759621
H   74.069176    5.223215   29.438324
H   47.633179   73.859344   67.174835
H   66.188385   90.259872   44.265614
H   39.390984   49.364250   94.564354
H   14.842232   52.062664   51.528336
H   73.364967   54.507298   47.874271
H   50.559750   26.424782   90.696289
H   49.755081   44.493065   89.326263
H   34.935905   94.508987   91.469368
H   88.144791   55.980988   88.006607
H   22.822094   26.863983   10.675529
H    0.506054   76.513634   53.070641
H   46.247555   37.040798   48.051895
H   64.952126   85.195000   99.473267
H    1.909938   15.866293   95.251015
H    8.797206   65.458336   39.833305
H   44.055012   36.212063   83.419701
H   10.575983   88.054176   13.320018
H   26.169397   90.237106   32.139500
H   83.422806   82.681274   94.074821
H   90.556572    5.654037   91.067581
H   55.509018   16.350155   25.274082
H   65.437675   80.337379   76.589111
H   15.684971   25.476318   50.941620
H   60.668083   74.956383    4.496762
H   50.788567   33.589565   34.486893
H   77.958603   66.115074   80.001839
H   45.406994   66.864914   34.842377
H   65.147575   91.582855   57.890057
H   14.247232   38.613663   45.791435
H   63.142029    4.307325   74.641983
H   16.706875   70.633980   24.087435
H   54.722878   21.959911   51.477573
H   80.576614   63.062897   63.119461
H   94.923424    5.810545   98.334717
H   26.904406   77.993881   60.597511
H   28.031616   62.248394   51.521088
H    5.186811   27.436962   30.145527
