100
TIME:    1.723, STEP:  1723
H    0.803347   64.013443   97.568558
H   53.341881   98.162727   86.686607
H    9.371672   97.864098    3.109353
H   81.765808   61.662621   45.720226
H   79.738297   10.863561   18.986946
H    1.297874   99.341438   49.380581
H   62.666264   77.683342   25.193703
H   84.461891   37.663120   49.994476
H   11.273369   20.634094   91.630074
H   27.754217   41.123085   75.161858
H   39.985764   35.570988   73.780777
H   90.077499   10.055679   70.284081
H   33.662621   57.463509   53.876198
H   69.768776   99.765083   88.360847
H    1.457379   16.122005   67.950943
H   32.246872   61.030983   90.017349
H   85.540848   95.941727   30.230097
H   37.964180   10.911222   39.813278
H   72.098122   50.636696   54.135509
H   46.096642   69.222275   33.642464
H   62.031372   84.687256   10.479511
H   27.560429   46.374100   72.545387
H   62.739494   80.609169   83.052643
H   58.956154   57.346409   79.109665
H   67.959587   49.524139   49.274742
H   38.758572   76.267700   27.675879
H   13.502193   70.855728   34.157330
H   87.160202   36.863522   23.725138
H   48.635925    5.416280   75.725395
H   67.060814   48.195816   20.362034
H   83.879677   76.555038   73.069000
H   74.548492    4.909589   39.757317
H   91.723221   42.419014   53.018402
H   50.902351   15.819927   99.164642
H   37.943962   28.674690   29.647133
H   22.363022   19.834181   14.716512
H   45.056931   41.436867   44.230900
H   92.777107   27.418324   44.028217
H   73.261978   43.727028   76.986008
H    0.906477   50.882221   73.597000
H   17.493660   15.303714   82.937668
H   76.767761   89.186607   83.749603
H   26.082045   73.832260   25.927765
H   69.334129   41.648087   49.199444
H    7.198433   63.907536    3.551508
H   55.858448   95.780373   90.167183
H   54.273365   18.686296   42.346138
H   56.331432   13.123281   75.187416
H   15.396398   89.750816   75.744156
H   62.026615   56.974560   63.154476
H   43.413166    3.298651   71.583893
H   88.867989    3.857144   60.951504
H   44.621284   31.999268    2.799966
H   36.791645   79.094902    7.848249
H    3.591275    9.551977   15.027016
H   95.722092   10.721157   33.971817
H    5.483374   39.830711   19.859213
H   97.759125   14.171359   69.175003
H   26.166313   11.569152   79.208237
H   45.317852   60.224522   14.603450
H   68.388840   98.445503   80.056786
H   37.758514   11.907074   17.393433
H   91.102631   89.657280   15.353841
H   61.355904   51.167183   80.361931
H    0.709950   23.230618   56.021519
H   95.498787   56.617592   48.062557
H   49.329300    7.932368   50.249157
H   61.346382   16.077309   48.571964
H   42.776985   25.982529   52.169922
H   65.288635   34.804726   98.104980
H   67.319298   78.167686   41.482761
H   31.898184   94.341904   82.772026
H   94.648361   33.079517   17.567898
H   92.270348   40.344849    0.805554
H   45.243958   31.095324   32.013531
H   66.394600   18.000353   79.993095
H   23.391848   77.209457   21.520250
H   12.930003   38.057907    9.593898
H   44.141457   48.454929   36.902199
H   15.026466   15.115267   72.483223
H   44.599812   47.106884   82.968575
H   70.602448   55.480057   42.701614
H   26.816914   36.014923   94.007202
H   68.698067   59.600933    6.052925
H   68.433609   41.109985   80.726974
H   11.634266   72.345024   61.433617
H   82.229988   78.076782    5.702406
H   83.692062   67.347061   77.832802
H   91.438911   98.238808   14.103054
H   14.001787   38.386955   85.810631
H   94.534767   66.467072   69.848343
H    5.771603   25.091669   66.350319
H   95.835548   79.257980   52.211227
H   13.761774   17.744905   42.991447
H   26.802917   95.393158   55.679039
H   36.234344   27.691267   78.453659
H   25.838539   66.559929   38.098038
H   13.191411   30.907990   28.468220
H   26.632534   44.277470    0.724164
H   46.245499   34.445972   31.736629
