100
TIME:    6.864, STEP:  6864
H   53.137772   92.559303   92.861832
H   10.909538   76.814705   10.902030
H   97.755432   67.727638   42.769535
H   82.628708   49.854034   63.925282
H   33.690826   22.937208   79.594391
H   21.576061   93.771812   58.511860
H   93.228287   24.827511   27.226892
H   80.389427   82.424988   77.964516
H   84.897652   26.347885   68.023750
H   87.279274   14.941725   76.471107
H   61.782471   42.430378   78.573845
H   93.859940   67.747498    4.342461
H    6.060654   46.509136   42.979912
H   15.217091   83.919106   79.593788
H   63.976143   56.906517   20.813290
H   25.537594   11.378538   63.269043
H   72.145027   35.970852   98.245338
H   47.850910   60.836792   61.582115
H   52.172726   66.308548   24.984348
H    7.591042   60.044918   83.665672
H   56.957230   72.884979   70.940086
H   20.438705   53.196045   34.745255
H   94.097908   38.797752   35.964249
H   81.293724   18.941622   97.292740
H   84.088692   41.810898   87.232094
H   15.242916   23.749641   44.950203
H   70.189369   57.150307   36.160610
H   53.376740   76.828026   93.659286
H   60.421989   71.847816   32.706329
H   64.189316   20.956108   29.056499
H   86.197151   37.563835   66.321175
H   99.154541   62.863262   63.829201
H   53.848759   66.279442   16.160284
H   68.122108   44.678024   82.582306
H   10.129921   39.968910   42.663231
H   69.313469   23.046806   97.846199
H   38.145996   53.161255   49.321629
H   80.290108   33.338421    6.815771
H   55.342304   31.860247   79.139877
H   16.681709   69.599365   78.080307
H   66.145828   91.704475    4.058307
H   21.753571   68.520325   30.379864
H   70.358856    4.663040   97.268639
H   41.053600   27.854635   51.860680
H   61.253624   61.071476   43.481510
H   89.523338   93.837143   11.046988
H   95.359665   98.125015   91.352013
H   56.606564   66.066956   93.283371
H   65.668709   63.972332   70.667984
H   69.850342   35.207905    3.600538
H   43.030277    6.968350   25.783257
H   38.717388   26.810951   23.457558
H   51.253407   61.808533    4.217749
H   17.738838   95.208664   34.704849
H   94.272629   60.133965   58.731815
H    2.144863    5.313461   58.960037
H   31.399675   91.488411    8.810989
H   14.948266   28.667688   36.755478
H   31.626076   28.793194   84.534737
H    6.066515   55.378933   68.382103
H   92.686638   59.362228   79.224136
H   55.301155   64.052933   84.779785
H   40.057499   38.896400   62.785370
H   14.377846   79.154205   40.782993
H    4.765798   12.627594   34.783833
H   79.681152    1.043653   52.037094
H   36.857346   85.668304   98.455338
H    6.222301   10.096496   94.341492
H   99.001625   56.583069   29.734478
H   69.446007   93.380791   87.279510
H    4.068707   28.375137   79.811775
H    8.012811   23.714779   59.178993
H   59.445663   78.786346   85.755432
H   79.104301   14.997276   95.318542
H   93.112419   38.427547   21.735996
H   87.926186   47.491344   34.069557
H   90.180267   31.704082   12.475527
H   54.463528    1.899609   93.512001
H   90.667381   33.356991   94.261559
H   62.907944   35.105568   29.581352
H   45.190849    0.292959   90.234650
H   56.365013   88.984818   12.762531
H   52.039474   21.908361   83.636063
H   22.382259   99.526146   36.496616
H   18.109510   19.537460   82.364616
H   93.314133   61.182579   18.440384
H   25.585833    4.283822   50.845406
H   66.421013   55.810497   24.408859
H   98.129501   11.996008   72.052132
H   59.469776   26.872189   69.586456
H    4.925851   44.067612   78.416916
H   86.165390   11.717948   64.308739
H   25.448978   33.473553   49.808235
H   10.646182   29.603724   89.628021
H   37.918739   34.894478   73.813873
H   60.859848   24.679571   12.914574
H   17.770422   61.590576   42.434631
H   25.028215   26.090439   41.086617
H   81.728020   66.442619   70.106071
H   65.559135    2.494220   36.509686
