100
TIME:    5.483, STEP:  5483
H   46.529213   19.202721   94.126175
H   49.047646    1.978313   23.825809
H   74.006851   68.373001   58.984737
H   82.396912    6.750095   39.621124
H   46.060318   12.244051   17.038696
H   42.996143   95.267952   21.745913
H   65.604515   31.576069   19.230822
H   88.933304   62.950001    4.762361
H   18.845329   59.125305   54.952553
H   25.003946   95.111122   22.397604
H   90.239731   86.863098   11.599537
H   46.571259   98.525307    2.643593
H   94.185379   30.023121   80.203300
H   83.595726   88.175728   74.499397
H   47.192863   80.263962   87.209595
H   81.063950   32.165909   77.904022
H   83.196815   44.627987   72.527466
H   18.317961   28.034420    9.457022
H   30.668026    8.370440   52.226604
H   44.794342   89.376259   89.640785
H   38.907722   10.366829    8.426662
H   88.040894   51.362747   52.350174
H   12.537583   50.029335   75.474976
H    9.607872    2.420870   99.857300
H   33.479767   51.331177   77.033058
H   21.551714   64.569656   74.820602
H   89.273697   14.554609    8.756668
H   69.901375   12.367592   48.012802
H   30.393837   46.552433   97.988586
H   11.236240   55.135521   19.271286
H   31.845245   13.727065   75.581429
H   11.957127    1.024787   91.675301
H   56.573284   67.319969   91.748894
H    9.770942   71.238518   40.760414
H   44.479340   44.447403   58.603325
H   49.265217   14.880623    2.188221
H    5.690423    3.735325   40.504192
H   37.369534   58.614750    9.362350
H   13.632085   61.951591   12.968966
H   46.755833   98.882698   69.426414
H   60.527374   44.317055   71.522804
H   38.839684   57.939171   60.391247
H   58.469128   96.379868   97.517342
H   29.235691    4.674820   16.834955
H   81.045677   15.561807   25.305834
H    7.347974   67.496658    5.436465
H   84.570602   23.022396   78.097481
H   56.532238   51.843094    7.834848
H   25.304115   78.347412   25.754391
H   40.872761   14.186117    0.177028
H   43.126301   40.295532   11.226642
H   71.596123   54.958622   14.112518
H   22.605495   53.801025   84.425285
H   49.716187   17.741486   73.766258
H    4.229946   39.108883   46.983959
H    0.424778    6.766139    5.972549
H   43.849632   31.337288   77.466331
H   17.780163   59.086052   72.325668
H   22.709578   70.439278   90.550240
H   97.198181   49.230434    7.661018
H    5.572100   23.587509   86.898155
H    4.315126   76.907089   47.266846
H   46.301670   33.133469   57.484680
H   19.546947   71.631363   78.277298
H   49.953247   22.925648    6.176681
H   64.516624   69.696922   70.381081
H   47.657410   37.924030   31.782284
H    1.617316   31.116552   28.321707
H   30.174032   55.812920   16.347687
H   41.470360   23.920734   90.187500
H   47.923103   22.337357   96.374672
H   21.868999   69.554825   58.062416
H   49.489761   47.093681   21.163269
H    9.508549    2.400486   77.372490
H   26.529173   36.457279   17.046627
H   55.282242   58.982857   26.993494
H   64.776817   51.316700   88.017876
H   89.581635   92.200356   17.244570
H   24.443157   37.413425   78.857643
H   30.631104   10.333634   48.555847
H   18.165514   86.005814    7.695397
H   52.725235   80.028915   28.288145
H   64.688271   98.814514   52.117519
H   27.371912   81.351120   62.628658
H   85.352211    5.919177   16.236900
H   25.099285   10.453044   22.539536
H   33.351906    4.694088   84.994064
H   44.210716   66.319458   38.727547
H   69.471054   88.887917   83.346931
H   81.568054   83.690231   20.221941
H   48.409630   69.496506   49.252728
H   83.985374    7.853560   37.999741
H   36.924240   92.036781   43.013386
H   77.178261   45.820385   96.509483
H   61.793755   58.596790   42.078861
H   46.794922   79.214203   84.244720
H   27.387362   82.338921   21.856995
H   26.991087   62.922150   68.292564
H   47.515533   60.485355   85.778221
H   79.780838   37.931622   69.546661
