200
TIME:    0.031, STEP:    31
H    3.049008   63.168621   11.765806
H   26.101460   29.826723   81.412613
H   22.518301   59.990257   35.053825
H   10.797562   74.530922   49.964993
H   17.429277   78.432175   56.663418
H   96.417725   58.487583   71.736259
H    0.331241   55.452423   45.606007
H   98.205200   79.861267   32.490944
H   78.940720   90.639503   52.817970
H   18.218426   77.826469    4.315977
H    4.908805   90.129463   86.357071
H   29.913559   36.444332    2.783801
H    6.044528   80.071617   69.857567
H   14.282677   52.325153   32.194668
H   29.712540   70.335693   43.492832
H   35.392342   34.577698   58.831577
H   74.375458   97.929970   25.579325
H   41.525196   73.119820   47.241234
H   58.071621   37.268147   39.407162
H   89.391327   82.574852   45.572598
H   55.576859   66.325157   35.415707
H   94.681908   40.825706   78.628731
H    1.263886   64.061058   54.151047
H    4.216192   86.210976   92.252899
H   94.162308    4.298133   52.868031
H   18.834101   53.061615   13.859327
H   94.848808   54.603107   40.678619
H   89.713898   61.507504    0.181341
H    2.265981   62.882393   39.562176
H    2.494053   15.165504    5.855324
H   13.634358   42.717533   15.939287
H   35.726646   58.607895   88.457535
H   32.173218    4.488328   70.626289
H    3.344067   63.349899   34.637199
H   58.018116   98.437057   35.808849
H   39.888294   54.687244   77.079880
H   80.265793   78.939964   84.385902
H   43.253128   39.349014   24.564486
H   60.805382   53.884605   39.785931
H   92.087090   40.547947   71.860443
H   80.443832   14.990879   94.587105
H    2.936553   47.489491   46.028332
H   80.464981   92.583099   42.567638
H   37.746872   53.083889   11.273515
H   21.636242   69.918571   36.821724
H   44.000927   19.277803   40.414856
H   76.035629   36.451542   91.596291
H   95.204010   65.553795   55.161148
H   78.997627   36.683422   61.015648
H   69.596008   16.858332   14.554742
H   83.180023   73.141464   36.151588
H   29.127577   32.100689   59.047421
H   46.540852    0.403329    5.193882
H   25.517149   77.773193   78.608154
H   86.045425   81.033028   97.532623
H    7.984886   77.498840   71.804443
H    6.026943   15.954579   51.896519
H   65.125290   53.720821    9.075660
H   32.591217   70.440079    2.071583
H   47.937149   97.162758   70.857811
H   51.096401   19.454052   48.342808
H   86.181541   15.929805   47.464462
H   65.689415   20.876884   91.935989
H   19.062166   64.854156   99.001320
H   67.988670   72.963333    9.383094
H   46.938046    8.441497   29.106552
H   93.982033   27.570501   81.517097
H   98.511818   90.974754   83.133713
H    9.088511    3.028913   64.625153
H   46.440048   37.987251   50.993755
H   58.556850   72.977303   67.690872
H   38.013992   29.315434   46.227821
H   70.860489   22.049862    6.493839
H    1.056442   13.558572   54.488647
H   76.600143   97.488060   77.439888
H   48.031036   26.455353   64.243057
H   96.310959   22.169622   75.101860
H   34.296234    2.164138   55.114281
H    9.941597   20.381691   39.567417
H   71.425316   91.832558    4.173411
H   34.497654   33.634178    4.235906
H   17.446707   72.348587   94.318321
H   11.815123   11.373746   96.394791
H   31.489544   55.025383   87.039642
H   46.350750   97.113815   63.705128
H   18.778963   93.086899   32.133533
H   26.488073    2.348599    1.292188
H   77.069542   26.322926    3.559218
H   59.294819   71.530846   76.405731
H   24.490948   76.679214   57.164837
H   50.003571   33.088570   81.684105
H   85.511246   86.701736   93.807449
H   37.331268   19.219233    1.682189
H   69.400253    1.942354   63.365997
H   19.829023   59.753326   59.235168
H   77.927254   23.036488   38.888176
H   76.470497   21.508036   89.328026
H   12.640232   25.191023   46.614742
H   41.753700   71.871666   52.140583
H   63.570469   94.531006   27.199381
H    0.541496   74.647766   59.097874
H   82.800499   73.494591   67.017456
H   18.847021   44.807816   27.582037
H   11.833069   67.553604   81.862770
H   25.615791   30.219334   18.311520
H   79.149017   37.005661   53.675686
H   55.757786   27.501661   57.231903
H   65.982185   26.249836   26.823151
H   67.485138   42.727825   89.026375
H   97.653214   30.974417    4.514365
H   44.444752   97.882965    0.648804
H   77.601875   58.088886   88.130508
H   60.724018   77.849358   98.481415
H   63.932152   23.903128   80.343536
H   70.824791   73.265549   34.100895
H   22.567753   11.911589   69.505852
H   41.167934    5.499696   81.743637
H   41.831486   16.709282   38.156212
H   10.925103   49.866863   93.869110
H   65.267105   42.503536   41.546238
H   38.373238   20.370586   94.368393
H   27.307037   32.431087   42.040401
H   27.197607   30.637203   17.829166
H    7.156574   74.840286   27.017485
H   83.168037   14.122745   99.725578
H   40.065350   56.633598   29.566776
H    0.581575   48.214066   79.126343
H   80.000229   85.930779   33.237415
H   89.895721   60.048981   89.653168
H   57.615059   25.139956   62.940994
H   40.172226   92.648163   95.424294
H   89.722153   83.978470    4.398324
H   93.120216   72.426331   95.820473
H   11.168913    7.644293   47.134296
H   94.101372    5.149119   66.020821
H   67.924629    1.895082   86.760666
H   68.546700   86.031944   44.934265
H   89.435646   70.745796   86.500671
H   40.850327   41.410835   71.599518
H   43.334732   19.113890    1.264982
H   40.270664   69.215508    8.158846
H   66.859772   34.660557   41.374763
H   61.724110   52.914154    6.433562
H   67.289909   34.093296   74.661079
H   30.477955   76.698555   42.234333
H   38.282337   58.374454   39.855915
H   39.788170   97.693062   48.778374
H   48.359314   81.198471   70.024071
H   59.597996   73.517624    0.022157
H    2.764895   86.337135   97.806747
H   83.587013   57.760494   52.921997
H   24.989792   12.892696   54.701916
H   66.466576   39.653446   10.801830
H    4.384998   96.344917   81.117249
H    5.324866   48.359528   56.971752
H   57.297729   43.010677   47.630962
H   57.123547   54.616234   78.281052
H   43.074635   40.013222    4.827624
H   21.947393    2.521837   10.355463
H   66.022171   65.471436   70.220520
H   51.902973   92.900330   88.972870
H   53.416927   24.139395   37.354580
H   56.222942   43.681965   37.318954
H    3.603129   14.039807   80.140991
H   60.955338   14.996629    7.770973
H    8.312818   71.088493   63.444313
H   78.498718    0.947224   50.006081
H   23.449638   21.423504   39.370289
H   91.233078   28.849884   37.350445
H   16.935192   12.036917   92.756897
H   83.357727    3.148324   35.993614
H   53.383034   73.209351   56.816311
H   33.634762   86.434708   96.304703
H   73.794731   79.554337   69.402939
H   81.151825   96.608765    9.057933
H   94.454308   46.531914   23.086231
H   37.564796   46.392292   78.165085
H   99.877647    9.001541   62.207745
H   80.946480   26.238138   71.579277
H   96.242508   52.213173   83.436691
H   85.233559   77.699844   46.578671
H   15.012139   29.850918   61.986279
H   75.256622   90.382614    1.933510
H   46.930092   24.833263   69.501396
H   82.820213   97.399361   79.257889
H   94.885002   34.460205   82.908180
H   24.074928    8.104613   94.634598
H    0.461885   58.372154   18.213572
H   12.670866   60.241394   64.154785
H   45.812977   59.410221   63.062458
H   37.836037   37.939083   80.793953
H   49.366253   79.249435   27.286478
H   99.458176   12.551839   53.018597
H   38.755070   55.189228   29.101021
H   92.066864   63.590591   22.499945
H   74.817886    9.870601   32.429832
H    8.072034   79.860512   96.412491
H   34.983700    1.559730   52.860943
H   14.700373   11.027096   87.364281
H   10.187676   42.073311    0.652570
