100
TIME:    0.711, STEP:   711
H   69.240395   56.818977   98.495071
H   81.492455   43.294765   22.849821
H   91.980408   25.055939   14.991562
H   81.595947    3.356043    1.190170
H   88.802689   29.747307   46.426674
H   16.991039    0.439816   49.158672
H   15.707401    9.346973   46.053898
H   64.003098   50.111835   42.912758
H   36.150261   17.933777   55.333138
H   55.410057   26.593700   35.532410
H   34.119537   94.851318   71.261635
H   28.703373   59.329430   42.318886
H   98.036240   18.691101   54.460716
H   19.877110    2.885091   11.346844
H   89.149803    6.515074   16.594839
H   72.936264   49.548489   74.020981
H   66.903206   29.016556   38.089622
H   16.337807   60.124741   74.897263
H   56.335701    8.179210    0.822266
H   73.403267   90.624969   64.693886
H   22.084793   85.435028   37.945946
H   30.523243   45.038376   58.716145
H   76.251152   88.839699   12.007000
H   52.981934   45.209080   54.270607
H    4.155098   29.786861   41.808586
H   43.398861    6.424627   22.531473
H    0.768027   12.921084   14.075148
H   72.548180   89.626266   90.275436
H   26.631226   13.599633   23.562634
H   28.255709   73.242569   39.910671
H   44.070469   85.801750   53.149193
H   10.650101   32.867798   33.443230
H   20.439342   16.462137   61.849449
H    8.143392    8.563785   41.797401
H   63.098808    5.173966   68.022232
H   34.374146   40.338268   18.197882
H   47.992840   78.497414   64.489326
H   34.603539   45.940876   72.613884
H   18.755943   65.330238   73.981384
H   96.225426   45.622059   93.973930
H   86.652710   80.576805   59.093792
H   67.720543   43.768555   36.204014
H   17.365095   67.763596   52.828705
H   33.956665   24.686831   50.250374
H   94.981697    3.839736   16.949675
H   68.870827   76.570122   86.106483
H   43.587574   64.096985   33.698677
H   56.277386    2.703803   12.570540
H   85.813530   73.563583   16.111528
H   40.801731   41.571270   33.936401
H   43.490376    1.000688   60.913548
H   39.685555   97.763138   27.385986
H   23.628031   26.131348   61.577629
H   60.224720   95.602287   63.190937
H   84.157135   20.834528    6.439392
H   94.455856   11.784718   68.422684
H   41.325531   69.031334   23.609581
H   73.116150    9.741982   95.240921
H   46.351372   68.809982   56.900478
H   12.100739   82.437729   43.387047
H    4.550728   45.505585   58.959480
H   73.676361   21.327469   63.186371
H   22.459278   58.668785   84.780617
H   91.862251   45.662148    7.835264
H   60.544846    4.057214   61.776176
H   57.667458    6.927164   88.225731
H   30.524214   72.942139    1.388688
H   31.252281   58.200119    0.192512
H   92.337700   98.698410   15.639008
H   44.789032   83.904930    0.235638
H   99.453880   47.026577   53.620090
H   15.342150   27.928947    8.677263
H   60.633362   83.137367   43.518002
H   14.541409    4.385574   60.951759
H   96.452682   29.655367   55.296680
H   42.468159   53.141922   48.087849
H   31.508820   64.920769    3.615033
H   65.384399    4.229734   53.707165
H   95.631599   51.419773   25.616360
H   64.656754   70.233055   59.667877
H   24.795582   36.637280   22.483284
H   94.669762   48.870926   27.324806
H   62.782108   19.124434   97.619202
H   99.079254   73.002785   98.488106
H   17.709574    4.409541   78.829033
H   34.928364   35.170399   91.157143
H   14.640814   51.657433   57.446331
H   67.400864   48.369530   88.349632
H   70.437935   54.584602   22.383327
H    3.474242   80.028992   49.630276
H   53.119602   11.824156   48.476757
H   30.893755   48.979836   47.070175
H   30.902447   48.933937   73.919640
H   15.948154   56.361198   74.756874
H   44.299732   86.042450   32.423546
H   52.647278   67.654472   30.725029
H    6.166830    8.483218   96.298538
H    9.475705   22.291412   44.659889
H   74.841698   39.915134   85.494484
H   83.396957   60.442402   29.206781
