100
TIME:    3.899, STEP:  3899
H   53.648590   64.463165   95.576370
H   92.811745   16.141592   23.947401
H   46.774994   54.413490   77.574669
H   82.131042   72.011223   26.445169
H   60.248062   85.279549   59.986542
H   67.563118   96.984016   64.877983
H   48.623005   24.616489   95.359810
H   13.432587   25.915165   50.201313
H   57.783073   11.420502   54.659748
H   68.291298   72.367226   60.372673
H   37.579544   23.127018   64.177086
H    7.025093   19.127115   15.394026
H   95.247406   25.812637   37.600166
H   62.025246   93.058052   53.956608
H   27.928158   21.752895   63.352871
H   44.754593   70.708244    9.389929
H   10.572785   39.858868   28.329702
H   84.457848    5.092181   64.372253
H    5.996701   41.921967   68.775314
H   87.472984   23.016638   81.794701
H   32.904526   68.060364   51.416183
H   36.181274   49.259964   87.242432
H   33.686760   62.911903   20.795288
H   56.782158   83.444061   17.499027
H   90.134064   76.949646   65.334816
H   28.778353   11.433118   23.717596
H   25.863352   80.401016   77.332863
H    3.556088   38.431839   95.650597
H   95.950378    2.840061   72.864571
H   50.497833   94.339134   93.348297
H   69.507195   71.685722    0.902473
H   11.942367   44.785225   38.314079
H   44.998043   83.213173   49.049667
H   42.843979   16.402534    7.493022
H   83.852142   64.185600   62.148727
H   11.565252   90.772308    7.228257
H   53.763283   61.746078   15.691098
H    2.840526   87.596733   97.583916
H   80.495087   96.466240   66.470192
H   95.951454   47.172272   44.799770
H   68.782776   89.968567   34.204449
H   81.201218   86.847366   85.979950
H   44.825207   86.881088   83.102318
H   30.380941   78.115295   61.957275
H   18.446642   78.055878   89.758362
H   27.785206   37.284260   98.999214
H   72.195602   36.879295   62.893723
H   56.447643   35.528397    9.825905
H   79.000900    9.535103   88.941284
H    7.651202   90.081596   10.963947
H   43.247150   93.219872   94.527252
H   94.617432    1.940787   18.099331
H   89.751457   44.616455   76.422340
H   86.401421   43.591217    3.869277
H   30.349594    0.286782   33.509228
H   98.444748    8.432745   59.895645
H   43.430882   77.042610   26.814901
H   35.728264    8.675003   13.125546
H   97.783440    3.510481   12.154381
H    1.725997   27.478109   52.713753
H    5.652193   97.251488   10.399807
H   60.531487   91.650742   18.936142
H   38.763424   41.222710   66.104332
H   10.776373   63.004097   21.281567
H   87.080574   49.437794   58.666080
H   61.823402   48.441933   76.723114
H   74.744308   83.160492   55.306255
H   11.035255   40.525711   52.597347
H   51.228989   69.629059   15.693327
H    9.380529   44.251396   93.522949
H   98.220711   30.112282   15.376598
H   52.476151   22.125107   42.088436
H   52.769623   25.446033   61.780823
H   44.379894    2.642482   71.488823
H   50.156986   34.197392   96.968178
H   17.830950   57.463173   33.576572
H   20.958532   88.607224   60.004932
H   15.162440   95.774162   29.766962
H   48.482933   42.066135   61.187508
H    8.310896   96.605476   85.018944
H   87.173782   69.618607   13.023208
H   33.871376   69.690994   60.745605
H   64.488808   72.339142    1.260486
H   18.395555   45.805122    7.304093
H   62.480438    4.998951   69.788116
H   61.559612   52.272522   12.541715
H   27.560125   19.863869    9.462795
H   18.716925   93.131035   55.194733
H   36.599960   77.082283   96.302010
H   21.614313   48.861404   63.594704
H   83.585724   83.966042   15.801553
H   66.782944   88.728081    7.819930
H   35.386864   44.507057   20.520182
H   24.080723   49.736580   89.708138
H   89.178276    0.480107    5.682469
H   15.963042   41.763496   66.060493
H   53.117920   91.436378   12.953861
H   21.178221   49.435333   93.646812
H   22.973869   53.657352   18.454414
H   81.392570   78.577675   22.136690
