100
TIME:    6.306, STEP:  6306
H   90.873611   43.729790   93.372696
H   26.318481   46.577602   75.719765
H   88.159698   27.582455   49.321369
H   82.535049   72.842926   94.509033
H   38.688782   78.211136   94.724487
H   30.230953   94.376335    3.250221
H   22.473194   87.148811   83.590492
H   24.247131   34.150951   29.197781
H   98.614357   79.997147    3.145951
H    2.520395    6.928677   54.623142
H   13.686264   19.977896   32.323975
H   15.157463   39.777683   44.060722
H   41.667892   80.253929   98.425713
H   42.845070   85.639015   37.129757
H   57.198677    6.749817   47.646435
H   47.973663   60.183205    9.587710
H   17.016243   99.064613   47.448402
H   35.917973   87.989227   80.926308
H   43.483776   42.898613   95.587616
H   22.623222   71.895546   45.674400
H   90.069748   28.435078   86.087212
H   66.942703   52.455292   82.264145
H    1.548160   43.335930   51.928757
H   33.139362   12.266329   38.734997
H    4.046199   86.062393   83.111122
H   17.800016   40.238708   97.429726
H   18.305096   80.344803   25.087629
H    0.460400   50.782463   75.217087
H   48.288963   21.221626   59.083954
H   42.792622   34.766472   84.697769
H   64.238503   87.526787   10.468285
H   63.921940   78.282532   15.486015
H   14.542917    7.105726   65.891235
H   44.545723   95.815536    6.090127
H   24.017365   82.217384    8.712274
H   20.807402   79.341560   99.600166
H   84.626289   73.595825    5.353505
H    3.355190   43.551449   67.437294
H   78.894714   44.018791   33.213661
H   69.237915   21.836449   34.177143
H    4.281663   72.555580   90.912331
H   68.778625   66.332123    1.892892
H   65.556732    1.315629   56.962189
H   76.683640   18.488791   97.303429
H    9.657337   83.089157   95.731308
H   96.726524   83.194138    8.780027
H   91.000290   67.779678   85.996452
H   56.576191   60.319733   58.757465
H   49.358932   10.187637   92.924637
H   58.136654   26.713461   42.616524
H   43.068592   60.839966   19.901932
H   11.593325   78.590103   60.086525
H   39.678074   58.573059   36.626003
H   30.659447    4.312089   10.083087
H   38.702232   11.232284   53.985035
H    1.449875    5.900423   77.955673
H   96.025627    7.589585   55.740547
H   56.497711   81.363472   51.127792
H   87.617798    5.213038   27.371025
H   42.887344   12.487622   84.252953
H   57.488087   85.313370   22.730900
H   75.105659   69.246719   10.026399
H    2.174265   76.972816    1.049103
H   76.062119   76.114563   55.934376
H   82.619263   57.195316   82.819115
H   13.959305   28.783012   19.043776
H   81.626083   66.374664   71.515762
H   44.767281   78.183937   67.665863
H   71.193581   96.677399   64.732849
H   58.141083   65.317314   88.454498
H   21.788712   66.340866   86.504097
H   54.007900   42.241211   18.317219
H   95.827713    6.386978    0.059651
H   91.390587   50.311794   28.471930
H   66.206902   37.631451   79.435440
H   74.737373   11.727795   71.614685
H   39.502529   80.000633    2.579369
H   28.247677   38.386406   62.698189
H   63.906620   34.996014   88.037529
H   90.273239   65.501991   77.653679
H   34.271126   94.520126   56.883732
H   14.494577   85.366196   59.443630
H   16.743011   12.576964   30.494980
H   83.992058   51.777367   87.461540
H   45.279686   54.442261   36.456329
H    6.155644   40.684151   79.690918
H   88.318199   44.855217   24.237890
H   57.446831    0.460836   30.194397
H   86.549911   43.063835   76.615852
H    8.803180   49.831280   49.640274
H   82.090141   13.938118   66.632980
H   44.879040   69.750839   53.678383
H   89.680328   16.729977    6.657237
H   56.717075   95.750923   52.002869
H   47.565559   84.876511   60.991184
H   14.771377   46.714142   41.735947
H   62.061668   29.568064   74.525421
H   26.105288   98.480362   52.287315
H    8.309817   64.033043   16.843155
H   30.901056   16.813114   90.263298
