100
TIME:    9.736, STEP:  9736
H   58.915924   29.183903   90.232437
H   31.590832   32.443760   91.990715
H   47.123753   74.350883    9.053879
H   83.110764   31.528269    6.498541
H    7.956347   53.140320    1.723748
H   77.042969   90.660362   42.934647
H   42.705975   18.759066   51.821056
H   54.655899   30.889637   14.265989
H   14.298409   50.215286   87.241051
H    8.832434   56.179539   88.924507
H   94.635956   57.990143    1.926417
H   84.245216   11.705772   99.910469
H   22.917374   72.680779   57.570183
H   73.013138   75.066811   98.153084
H   98.859444    0.365322   82.695580
H   10.058983   60.182785   24.867897
H   41.195869   25.931732   59.694839
H    9.265761   21.084953   62.026878
H   96.910461   86.790100   76.296371
H   30.210911   99.058807   79.204765
H   86.528183   86.968452   92.990936
H   95.780151   57.008667   90.167969
H   55.752571   15.447603   53.792465
H   14.442726   53.299042   83.994522
H   81.369614   14.046509    8.438377
H    1.698650   39.086227   74.681496
H   22.532448   37.762836   93.141525
H   11.046619   10.883275   88.592430
H   22.871243   32.417728   96.946793
H   74.314690   49.873581   57.372536
H   99.227333   95.102066   39.097763
H   80.494370   83.515900   97.953819
H   56.149216   56.150146   74.892723
H   89.470840   81.476433   61.589088
H   38.653725   22.518135   17.398558
H   18.971109   47.999783   88.818611
H   13.608422   47.982185   75.624100
H   61.582958   80.782021    9.484382
H   34.112385   69.286217    0.822120
H   46.170803    0.730453    4.042447
H   69.864883   90.248901   71.720421
H   79.716606   79.785355   76.994865
H   95.075165   21.892925    4.714830
H   57.675426   76.067665   32.667583
H   12.118261   47.753941   89.242798
H   52.455704   48.610119   22.714926
H   17.809902   54.318584   18.927496
H   56.781857   95.647644   70.985687
H   49.621338   26.114918   56.102615
H   30.141615   78.929070    2.791249
H   45.493519   29.895691   51.974503
H   78.298477   60.311417   34.928474
H   10.816793   78.461365   37.420700
H   51.225220   48.354301   61.438911
H   65.600075   11.820987   83.146088
H    5.721935    2.292397   61.190369
H   13.472832    8.618172   81.962013
H    1.093674   57.442116   62.778221
H   58.138165   50.152451   64.053642
H   16.543949   76.130005   86.695595
H   73.858704   25.802511   55.307400
H   53.368248   37.320755   54.833588
H   35.049877   42.935616   65.852798
H   11.593258   94.799103   62.810501
H   18.760735   83.244850    2.239512
H    3.252203   58.268181   21.853159
H    6.430622   84.960510   37.116894
H    7.833652   74.349495   31.639709
H   42.143593   50.219467   49.608723
H   27.758072   37.657986   81.193726
H   12.862040   32.959354   45.366707
H   71.530403   28.327538   69.689545
H   72.186920   36.727711   12.116817
H   15.884045   33.229092   24.673239
H   31.462912   42.650990   39.491581
H   55.825356   31.558662   40.819908
H   51.019478   83.124802   63.415848
H   89.387016   14.116081   52.133987
H   28.390173   24.921017   26.311640
H   22.062809   78.652962   82.156197
H    1.413944   30.005747   61.890892
H   71.876579    7.617527   72.489265
H   33.696571   69.938637   57.151279
H   19.970741   45.290115   74.183678
H   78.269547   39.874390    3.958325
H   27.216488   66.675682   17.880787
H   17.400347   95.465324   87.793159
H   12.609598   25.993036   94.634857
H   57.734623   52.087120   48.562874
H    5.545232    8.709488   72.253418
H   22.460562   99.146744   39.068626
H   98.664307   27.719408   19.036654
H    9.549878   19.642752   71.904411
H   85.549049    3.642511   87.369484
H   88.260361   77.638405   39.807686
H   98.075241   11.268560   64.571838
H   89.804710   26.406971   77.261642
H   19.484575   68.196289   83.424767
H   44.912346   78.844597   29.545528
H   43.951256   28.793976   59.841038
