100
TIME:    1.031, STEP:  1031
H   47.599770   27.473274   98.202103
H   72.591087   60.645840   43.035366
H   97.478455   48.078030   11.234238
H   81.649658   90.172142   83.650993
H   85.936478   55.396721   37.749916
H   12.028881    0.091553   80.849266
H   98.936516   30.955671   71.078316
H   38.851730   77.796158   13.530485
H   28.284050   87.166870   35.189095
H   46.664940   31.187206   48.064148
H    4.353912    7.727074   40.438309
H   16.489017   75.369469   19.541235
H   77.679794   99.330269   22.656157
H    4.032845    1.898465   35.699871
H   93.041405   77.931458    1.212195
H   60.070053   21.557766   47.458481
H   41.175667   50.178665   67.225365
H   23.176186   44.563217   63.803513
H   61.318611   21.604502   17.680277
H   64.741158   83.915985   86.524940
H    3.095607   53.578758   29.261478
H   61.206837   45.460739   31.467609
H   71.978691   86.237160    2.851116
H   23.250488   49.046970   30.503517
H   92.710075    4.408443   44.169426
H   41.931576   96.889587   92.537537
H   73.175217   99.618668   20.425245
H   45.547897    4.562892    0.851689
H   33.589233   42.632114    8.436901
H   40.525845   65.322647   65.350121
H   56.658360   14.498568   27.827129
H   30.855017   24.027466    3.819249
H   42.980221   93.049812   90.677574
H   21.664253   79.237770   28.316290
H   55.144707   80.984383   87.509537
H   62.196411   65.474991   17.096807
H   78.684929   66.778664   89.704170
H   21.378441   40.083942   95.196892
H    4.369540   58.499184   43.310791
H   66.083824   15.664221   19.150644
H   64.782593   91.558250   66.634445
H   38.960777   58.131348   51.238194
H   20.121443   69.682541   75.942757
H   13.523199   30.049379   81.539436
H   67.222908   91.213303   44.334259
H   64.783913   82.585884   87.361366
H   46.966480   81.357727   36.433052
H   56.294476    5.998540   32.370342
H   95.168999   47.061241    3.346038
H   47.513157   46.441875   11.556030
H   43.465961   70.107094   64.287567
H   55.237312   68.070755    6.377709
H   30.266214   27.986816   42.991203
H   52.815052   90.382561   77.312027
H   58.682991   48.888241    9.154846
H   94.856247   11.448414   57.529129
H   61.611176   59.797935   54.044151
H   49.288025   79.522316   86.998734
H   71.588921   82.330490   32.332607
H   90.983719    7.033148   34.285484
H   24.737150   30.625214   34.010750
H   62.318939   18.348953   48.706390
H   44.165283   36.847496   62.827492
H   13.835764   47.402870   99.146538
H   73.245705   78.500328   91.576164
H   38.009254   91.019081    7.146402
H    4.849165   84.006592   16.839024
H    9.147599   76.500900   15.490363
H    8.286039   75.705246   95.569191
H   51.270966   99.998680   99.562134
H   89.292747   25.252054   49.782200
H   88.956497   17.308830   32.106224
H   39.769104   67.307289   35.312435
H    7.498563   84.136215   41.933205
H   11.881110   30.110689   79.554497
H   50.034077   73.651024   26.556778
H   60.563976   37.186394    9.277254
H   80.418579   83.306602   71.379486
H   10.970102   50.482273   29.184475
H   48.963394   52.804726   32.099518
H   31.057789   39.947826   41.608654
H   18.679516   50.960770    0.565424
H   83.030983   24.465010   28.097416
H   21.092970    0.385597   69.259590
H    2.127745   84.394455   47.808525
H   27.562641   46.925770   13.379162
H   36.012886   28.390831   72.705124
H   72.552231   22.749855   85.024437
H   77.078560   36.767220   19.764919
H   75.183090   66.860046   61.070705
H   66.215309   29.103209   55.234570
H   54.570515   73.047218   53.166367
H   51.434608   58.521339   98.675499
H   46.878326   75.771339   96.334023
H   38.767506   57.379776   39.777061
H   79.077942   55.017754   14.196642
H   80.766586   26.847227   77.895218
H   10.650632   25.016022   39.540260
H   59.597557   41.294529   58.688328
H    3.270029   52.222187   98.385567
