100
TIME:    1.190, STEP:  1190
H   36.847084   12.892193   98.056534
H   68.168221   69.266411   53.065060
H    0.210362   59.517315    9.367317
H   81.676346   83.621544   74.936272
H   84.512329   68.141273   33.438652
H    9.563309   99.918877   96.594963
H   90.602699   41.692585   83.512321
H   26.354645   91.552414   98.931511
H   24.375526   71.879715   25.180437
H   42.319710   33.469994   54.290855
H   89.564133   14.124528   25.122980
H   10.420010   83.339363    8.223864
H   67.565186   89.710594    6.853004
H   96.160149    1.408270   47.800282
H   94.975044   63.728817   93.569687
H   53.677155    7.649876   34.260239
H   28.392467   60.693588   81.702187
H   26.574005   36.831085   58.291306
H   63.794495   28.275194   26.056551
H   60.455338   80.543320   97.353416
H   93.660355   37.749359   24.945969
H   76.452751   45.670601   17.928493
H   69.855812   84.944023   98.301895
H    8.477676   50.953922   18.694244
H   87.023186   91.797737   45.342468
H   41.202518   92.151321   77.633713
H   59.464653   93.009842   23.580450
H   32.132515   11.984710    6.107224
H   37.046494   57.057987    0.921165
H   46.622753   61.387436   77.990349
H   62.912968   28.757643   15.245735
H   40.894413   19.634926   89.099831
H   54.180531   81.416435    5.001553
H   28.382256   64.666328   21.618303
H   51.192513   68.965248   97.192291
H   76.020599   77.964798   16.549711
H   93.935692   60.955910    2.232750
H   14.807165   37.173779    6.417223
H   97.221603   55.105003   28.070946
H   51.108261    0.778899   31.660467
H   53.917007   97.014656   70.380417
H   24.670769   65.267647   58.708302
H   21.491003   70.636017   87.428139
H    3.370309   32.714058   97.086189
H   53.431190   84.939285   57.941307
H   62.734844   85.614204   88.003822
H   48.645374   89.934158   37.791695
H   56.302967    7.635583   42.208370
H   99.817497   33.893326   97.003647
H   50.847897   48.861958    0.435704
H   43.453831   54.756859   65.964035
H   62.964592   53.316471   95.939743
H   33.564560   28.908752   33.756073
H   49.133373   87.789009   84.328445
H   46.024567   62.827671   10.504087
H   95.055191   11.281313   52.116394
H   71.691528   55.210091   69.166328
H   37.448425   64.506889   82.903397
H   84.129677   89.048492   20.126038
H   80.490631   19.254866   29.763145
H   34.767284   23.231529   21.614349
H   56.675720   16.869003   41.511650
H   54.950722   26.004707   51.919533
H   24.754034   48.267792   94.830421
H   79.556114   65.801872    6.383203
H   28.241585   83.114693   16.547438
H   92.092270   89.504242   24.515961
H   98.164177   85.594101   23.091482
H   16.210754   64.280518   85.597725
H   54.491676    7.996025   99.227325
H   84.243935   14.433256   47.875248
H   75.845596   12.031731   43.748093
H   29.402023   59.442425   31.235294
H    3.999148   74.074982   32.483360
H   19.546967   30.336927   91.607597
H   53.793392   83.840843   15.858079
H   74.999840   23.405497   12.090675
H   87.888687   72.910561   80.159714
H   18.591845   50.016453   30.957382
H   41.165756   44.144592   18.401489
H   34.169323   41.592754   51.111874
H   30.609489   51.999161   87.270096
H   93.092216   27.118608   43.241428
H   32.031254   13.991433   54.736671
H   94.385803   74.449677   32.395210
H   23.902798   52.766720   24.420631
H   46.632133   16.830238   80.286835
H   75.111816   10.020323   83.372231
H   80.378120   27.914488   18.463898
H   61.125992   60.317413   66.755165
H   72.722237   37.688335   58.592358
H   66.334908   85.005699   56.195412
H   61.636559   63.285080   10.976337
H   62.246758   85.415276    7.054679
H   36.018681   43.137077   43.430840
H   92.210678   48.738884    5.983829
H   68.145767   35.971966   68.751068
H   11.234424   26.369812   36.996445
H   52.023125   41.979916   45.369991
H   13.144455   48.137768   83.071724
