100
TIME:    3.834, STEP:  3834
H   58.044342   70.424011   95.635880
H   94.619835   12.617403   19.847212
H   45.657707   49.737053   78.337379
H   82.120132   74.689140   30.008039
H   60.830261   80.069511   61.749008
H   68.570808   97.054436   58.440636
H   52.029415   20.227184   90.276726
H   18.541458   20.292034   56.169598
H   59.380898   17.670059   58.751507
H   70.067650   71.433922   57.827164
H   43.625687   20.511585   70.438454
H    9.506134   15.868988   20.020624
H   99.382309   29.745209   44.060394
H   65.243706   93.258400   49.009899
H   27.137428   27.558769   66.477211
H   47.368042   76.393364   14.785685
H   15.799808   35.559818   22.412497
H   83.069298    8.253182   66.625671
H    4.984362   39.194954   65.350555
H   89.224541   24.397005   77.369194
H   36.761719   74.531006   53.180138
H   29.949661   49.173676   92.777786
H   34.554604   63.440544   22.655201
H   62.821358   82.664490   22.326717
H   92.458893   82.104141   64.854774
H   29.076643   13.369773   29.810106
H   31.468382   83.102737   76.043495
H    9.040488   35.397858   93.502312
H   94.537033   96.942764   75.937233
H   48.005386   95.947868   88.180908
H   66.949287   65.856789    6.045067
H    7.838331   46.580917   44.331459
H   40.419300   87.968956   43.193954
H   40.097626   22.359413   10.231205
H   85.467819   69.099083   58.190865
H    5.913110   85.666412    7.452595
H   47.529190   64.126450   10.569457
H    5.526998   88.785927   92.996742
H   83.238464   97.882561   72.769249
H    2.073866   53.257591   39.685444
H   73.225143   87.737961   32.673077
H   87.043045   83.930420   82.926132
H   44.265324   86.491302   78.407036
H   34.531616   77.026276   55.601685
H   24.084898   80.620728   84.196228
H   28.623791   36.044483   98.735390
H   71.687790   33.344444   62.269371
H   56.444172   34.858917    5.804103
H   77.100571   14.918213   91.533905
H    6.287944   89.092751   15.509960
H   43.252110   99.495125   93.841904
H   91.458481    7.972362   22.366642
H   88.403572   44.239563   80.197212
H   87.907005   44.651970    1.001172
H   35.524918   94.589783   32.956287
H   98.363419    8.501181   62.108398
H   39.310360   78.918144   20.632879
H   40.568352   14.813509   14.799864
H   92.656715    0.763949   17.144482
H    6.015252   22.481810   54.562508
H    1.551878    0.274526   15.467642
H   62.838463   92.255753   21.877388
H   34.350315   45.658134   70.561577
H    6.312905   62.650513   23.046513
H   84.500847   54.629482   52.612995
H   65.816475   51.673286   72.879807
H   79.959305   80.913025   52.168133
H   15.525354   36.808365   49.489971
H   47.989204   74.299545   19.770199
H    8.063639   40.981857   93.659821
H    0.284708   34.534920   16.156418
H   57.835457   24.282318   37.329182
H   57.007675   28.661022   63.447578
H   45.811092    6.755875   75.350975
H   47.023327   34.104656   92.040810
H   16.294123   53.297028   37.950008
H   15.056948   94.240768   58.855412
H   12.108623    0.024121   26.177065
H   45.366135   42.257061   60.461990
H   11.498734    0.145299   90.618767
H   85.902267   68.946152    9.138368
H   28.994095   69.266495   66.180786
H   60.376278   71.254089   95.069550
H   13.923681   40.242989   13.240756
H   65.645340    9.064798   76.089157
H   63.055775   49.884712    8.027812
H   23.218924   24.589897    6.363262
H   17.670801   98.335121   55.870659
H   35.251083   80.701439   96.833626
H   27.361174   51.535851   61.271362
H   80.925659   80.455986   14.428872
H   61.973396   83.840385    6.581331
H   31.220268   42.556641   15.493631
H   17.798031   45.793594   85.325279
H   90.302010    6.302535    4.188910
H   10.594314   44.330330   69.417809
H   58.277374   87.706139   16.692183
H   20.939688   48.881897   94.687233
H   26.070335   53.377163   23.899017
H   77.354866   80.245918   28.398306
