100
TIME:    8.162, STEP:  8162
H   65.359367   73.526878   91.673477
H   75.062149   47.151699   92.745193
H   20.068224   61.110825   27.530342
H   82.846573   96.375114   92.775337
H   22.060526   26.977543   44.399292
H    1.445137   92.365593   87.056343
H   25.200146   12.474460   28.732197
H   78.369186   94.719139   58.786942
H   52.990334    1.549577   86.318466
H   51.826698   33.579227   27.295570
H   41.045670   94.658554   53.543800
H   44.321426   32.809307   11.949173
H   23.286201   67.949966   13.990232
H   50.947533   79.918312   78.372246
H   79.741646   40.962753   58.389107
H   73.346741   97.850487   55.523712
H   67.767525   21.824070   16.407415
H   75.604752   97.676231   16.591297
H   72.388763   20.758587   93.368500
H   72.615952   32.484997   72.039528
H   79.932076   43.664822   35.713329
H   44.879230   54.919159   24.208557
H   76.767738   28.242968   98.824966
H   60.691315   34.469452    0.892198
H   37.663643   38.873146   96.818153
H    9.122890   85.487717   22.801544
H   58.261406    3.191268   61.918194
H   43.855637   37.414265   36.564552
H   88.645409   89.612717   71.350060
H   13.960821   88.829697   32.243683
H   37.281452   53.957405   63.627617
H   81.111015   27.004665   43.666832
H   45.277531   71.311684   33.094376
H   22.966026   25.724007   27.898565
H   77.825996   41.692070   21.634367
H   82.146591   24.712194   93.766182
H   62.640087    5.624327   51.598965
H   26.642303    9.581903   98.411934
H    0.549822    3.582361   53.353752
H   94.424454   48.084579   80.204224
H   77.436844   36.240089   34.637661
H   12.365113   73.610443   96.645531
H   81.529388   12.449238   91.023476
H   58.171574   49.642075   78.772003
H   48.662292    9.863117   54.555000
H   72.767540   18.591133   16.320311
H    5.503643   68.715401    3.812383
H   56.685787   79.435944   73.595863
H    3.615992   56.472382   18.887966
H   97.103271   54.964298   12.844991
H   42.941151   81.654884   39.466888
H    1.801329    6.365452   38.252533
H   78.174324   69.334778   28.835951
H   87.679321   74.036148   91.983536
H   90.923958   73.884155   69.768433
H    3.761520    3.948092   14.773056
H   13.688041   54.035439   32.261665
H   18.296526    6.086810    3.319784
H   33.994045   83.642113   84.889618
H   20.411530   55.147541   31.463890
H   74.565720   99.001587   78.021828
H    9.232613   51.971329   26.049370
H   28.178349   50.323029   73.777618
H    3.509207   86.224915    5.539028
H   56.288330    8.958382   55.660599
H   99.944527   36.516045   28.785496
H   32.716431   30.544453   61.123638
H   16.560783   84.330498   56.393402
H   63.696976   63.317070   48.327133
H   95.790718   58.598858   84.532135
H   62.852009   40.059189   64.244331
H    1.147079   80.589256   54.316608
H   74.813339   14.586428   52.477947
H   50.529049   32.847141   18.195223
H   55.642670   40.333317   20.149832
H   18.610498   30.680065   46.729874
H    8.066375   19.358315   35.495697
H   15.444207   17.030361   65.198303
H   52.909454   29.544353    8.744200
H   99.253746   64.396660   17.757484
H   70.599831   13.721993   67.814514
H   53.765549   97.402328    4.171629
H   34.138878   43.615635    7.250065
H   11.682370   10.598995   17.945095
H   54.908859   38.338299   56.538628
H   63.446636    8.856910    8.577281
H   12.276383    9.908432   12.738991
H   87.296440   51.943367   10.950745
H   25.069775   39.724693   61.436165
H   44.708599   73.470474   15.989344
H   58.045368   14.156379    5.828537
H   82.204247    9.340029   89.046318
H    8.653452   72.419731   50.184570
H   36.091667    8.351918   77.149925
H   15.474998   18.627037    3.641265
H   68.069321   73.423645   45.871101
H   14.741362   36.079002   67.784569
H   22.522768   90.315605   15.028719
H   19.893974   72.047691   61.385387
H   46.183781   69.181137   11.468280
