100
TIME:    2.408, STEP:  2408
H   54.478912    1.195534   96.941422
H   34.287392   35.302498   29.895834
H   21.146154   47.144882   95.070076
H   81.880783   33.441490    8.171831
H   73.602814   65.769333    0.414778
H   90.677986   98.599327   17.217905
H   26.767559   23.936996   78.761589
H   30.622246   96.925171   87.099342
H   94.434700   54.774033   48.512577
H    9.036814   50.958672    1.982730
H   76.268738   63.133625    7.799086
H   63.936356   44.391159   21.524801
H   90.089592   16.020256   85.793266
H   35.851158   97.653725   40.490360
H    9.790039   54.934845   35.021690
H    4.703466    1.116506   33.156998
H   30.467834   41.241890   92.596039
H   52.602585   77.599525   16.063965
H   82.769890   79.372421   90.225769
H   27.643158   54.676067   80.280495
H   21.382492   16.493000   91.886414
H   93.237656   47.280640   14.214798
H   53.593758   75.038109   63.454636
H   95.312195   65.561890   28.234787
H   43.459465   95.197998   54.328415
H   35.617664   55.856503   63.469017
H   54.434952   42.379772   47.750507
H   29.362162   68.837013   46.368176
H   63.530411   67.564583   43.344261
H   93.327370   31.242233   74.817802
H   10.826863   37.984371   18.867245
H   17.799599   85.981712   76.343452
H   39.973927   92.301949   14.728612
H   79.844688   53.043900   70.305923
H   20.915512   76.893738   71.357841
H   81.920486   73.646172   12.362138
H   10.757886   16.349787   98.206421
H   64.461906   14.880825   92.367805
H   43.431213   28.949389   10.959303
H   36.386890   86.754372   27.490244
H   70.679893   38.807499   99.075974
H   15.203888   19.929611   15.931374
H   31.982351   77.940002   75.405113
H   25.591761   53.129906   16.175806
H   47.779041   36.883190   62.170143
H   47.021053    8.845692   92.947487
H   60.543797   55.793121   48.572060
H   56.368015   20.175951   17.571281
H   35.417725   33.018749   48.418938
H   76.388756   67.398994   15.246494
H   43.360905   37.167015   78.806412
H   22.156736   40.294743   15.980610
H   58.831146   35.971130   63.018295
H   20.930325   67.921425   38.074127
H   49.060059   69.604034   20.838697
H   96.579178   10.001257   10.652802
H   48.907650   20.065468   85.008217
H   46.752045   49.481888   51.531570
H   80.190437   40.513134   26.619417
H    0.116641   12.874258   95.121346
H   11.598883   66.586983   26.649342
H   13.448528    5.529882   86.400024
H   37.565823   42.946083   68.360031
H    8.391973   54.893417   61.766712
H   27.899055   68.522034   19.813189
H   53.417946   22.564095   88.565102
H   94.369759   31.614157   83.320145
H   14.028898   55.253479   81.318924
H   76.917351   76.762810    9.206071
H   79.169250   69.259834   96.662567
H   45.568123   31.559797   33.264858
H   75.415955   71.608215   32.923859
H   49.985809   99.198357    0.002932
H   77.198174   96.995987   60.093956
H   78.270164   32.070187   83.940414
H   82.585167   61.904282   33.901997
H   85.585907   17.837118   33.636692
H   45.112545   93.267265   47.425671
H   76.984192   46.445675   44.545258
H   81.432442   77.810028   13.469760
H   58.004848   54.193523   23.909073
H   21.998093   59.953629   85.421730
H   70.156509   47.449707   59.249973
H   15.818322   18.217257   43.485626
H   35.080414   98.261566   14.323733
H   95.868713   97.503639    9.002063
H   27.979605   28.271713   38.366119
H   94.719208   12.504082   70.704353
H    5.654782   60.098473    8.499331
H   53.439533   10.202408   10.298816
H   22.567932    3.457382   84.314285
H   56.457920   76.605766   79.405205
H   39.785465   99.786240    5.204368
H   79.970375   59.297009   89.177650
H   14.957882   34.035774   71.420158
H   92.812485    0.642670   43.072723
H   71.466690    5.870755   98.702995
H   15.706489   36.740356   17.506401
H   94.002037   47.230236   43.343147
H   88.786240   16.851826   65.760895
