100
TIME:    4.013, STEP:  4013
H   45.939117   54.008759   95.472000
H   89.646706   22.321787   31.137861
H   48.734543   62.615242   76.236992
H   82.150177   67.314568   20.196444
H   59.226974   94.417152   56.895447
H   65.795784   96.860512   76.167351
H   42.648685   32.314655    4.274789
H    4.472412   35.777271   39.733860
H   54.980736    0.459696   47.483433
H   65.175850   74.004097   64.836945
H   26.975540   27.714085   53.196468
H    2.673746   24.841379    7.279674
H   87.989365   18.916187   26.270340
H   56.380562   92.706673   62.632374
H   29.314976   11.570190   57.872570
H   40.171005   60.737419   99.926697
H    1.405458   47.398739   38.707573
H   86.893150   99.548286   60.419315
H    7.772189   46.704727   74.781815
H   84.401024   20.595686   89.556358
H   26.139603   56.711292   48.322479
H   47.110565   49.411301   77.534271
H   32.164696   61.984749   17.533287
H   46.190331   84.811310    9.032181
H   86.056671   67.909454   66.176735
H   28.255198    8.036523   13.032331
H   16.032991   75.662613   79.594215
H   93.936890   43.752975   99.418358
H   98.429169   13.182916   67.475594
H   54.869202   91.517662    2.411007
H   73.993370   81.908775   91.883156
H   19.140303   41.635857   27.760521
H   53.028454   74.872261   59.319687
H   47.660660    5.955274    2.690599
H   81.018494   55.568108   69.090851
H   21.478239   99.727264    6.834804
H   64.696976   57.571274   24.673880
H   98.128624   85.511070    5.628585
H   75.683624   93.982231   55.422615
H   85.213509   36.499557   53.769512
H   60.991547   93.880707   36.890240
H   70.955551   91.963242   91.335876
H   45.807156   87.564713   91.337120
H   23.101561   80.025269   73.104004
H    8.558008   73.557526   99.513489
H   26.314457   39.458637   99.461922
H   73.086227   43.078880   63.988739
H   56.453732   36.702560   16.879585
H   82.333786    0.093886   84.394226
H   10.042148   91.815880    2.990878
H   43.238453   82.214043   95.729248
H    0.157734   91.362778   10.615124
H   92.115440   45.277466   69.801796
H   83.760857   41.730820    8.899482
H   21.272873   10.277628   34.479000
H   98.587387    8.312719   56.014816
H   50.657642   73.753212   37.657219
H   27.239494   97.908974   10.189049
H    6.774282    8.327480    3.402512
H   94.202805   36.240849   49.471321
H   12.843512   91.949486    1.511606
H   56.485405   90.589645   13.777743
H   46.503338   33.443657   58.287010
H   18.604567   63.624229   18.186123
H   91.605019   40.332371   69.282265
H   54.820168   42.774635   83.463684
H   65.598007   87.102203   60.810040
H    3.160313   47.045364   58.047207
H   56.911072   61.437744    8.543322
H   11.690153   49.985664   93.282898
H   94.600807   22.355408   14.008915
H   43.076752   18.341690   50.435436
H   45.336731   19.807438   58.857590
H   41.869793   95.428566   64.715202
H   55.652943   34.360035    5.610240
H   20.526308   64.769859   25.905891
H   31.309004   78.726852   62.021015
H   20.518368   88.320396   36.063087
H   53.949318   41.731281   62.459953
H    2.720022   90.397194   75.197716
H   89.403824   70.797989   19.836496
H   42.425377   70.435501   51.213135
H   71.700783   74.242157   12.118389
H   26.238535   55.560249   96.891953
H   56.929688   97.868248   58.737061
H   58.935574   56.460373   20.458282
H   35.173927   11.575142   14.898956
H   20.551664   84.003868   54.009262
H   38.965683   70.734840   95.369637
H   11.535108   44.170837   67.670273
H   88.251068   90.122139   18.209024
H   75.217789   97.300346    9.992342
H   42.694511   47.927788   29.335978
H   35.099598   56.651970   97.394997
H   87.207420   90.269188    8.301942
H   25.378967   37.261665   60.172279
H   44.069031   97.978645    6.397461
H   21.596571   50.405975   91.822075
H   17.543144   54.148762    8.905418
H   88.474083   75.651833   11.154683
