100
TIME:    9.660, STEP:  9660
H   64.055573   36.153389   90.302017
H   33.689774   28.325199   87.198967
H   45.817387   68.883049    9.946098
H   83.098007   34.659416   10.664477
H    8.637362   47.048584    3.784330
H   78.221191   90.742699   35.407822
H   46.688854   13.626956   45.877758
H   60.629349   24.314899   21.244255
H   16.166634   57.522354   92.024681
H   10.908529   55.088291   85.948799
H    1.705300   54.932098    9.247171
H   87.145546    7.896408    5.320097
H   27.763626   77.281181   65.122604
H   76.776260   75.301064   92.369820
H   97.936348    7.153999   86.350853
H   13.114998   66.830002   31.176781
H   47.307320   20.905151   52.776260
H    7.640486   24.783134   64.661209
H   95.726440   83.602173   72.289719
H   32.258305    0.672939   74.030327
H   91.038132   94.534126   95.053986
H   88.493958   56.907776   96.640076
H   56.767281   16.065546   55.966843
H   21.504234   52.389862   89.638626
H   84.087875   20.073883    7.877388
H    2.057169   41.326706   81.833168
H   29.086021   40.922352   91.633957
H   17.459181    7.335851   86.080589
H   21.218716   25.522615    0.539407
H   71.400444   51.754562   51.330666
H   96.236549   88.286697   45.110641
H   75.695663   85.616058    4.989480
H   50.795609   61.710754   68.046043
H   86.259720   88.441399   64.790932
H   40.545143   28.272408   12.774484
H   12.364771   42.046627   89.057503
H    6.319057   50.765388   69.635574
H   64.724052   82.172462    4.121445
H   37.320606   70.942223    8.186897
H   53.328854    7.845450   98.063004
H   75.059036   87.640808   69.929893
H   86.121452   79.486160   73.116936
H   94.421112   21.436886   99.225334
H   62.528057   74.792030   25.237011
H   18.716772   50.762119   82.742859
H   53.436203   47.160534   22.406164
H   17.215572   50.184948   18.197775
H   56.777218   94.864868   66.283234
H   47.399994   32.409016   59.134567
H   28.546492   77.771721    8.105211
H   45.070240   37.201019   51.831863
H   74.604935   67.363663   39.917366
H    9.240370   78.020691   41.834976
H   52.985016   49.594566   58.085152
H   71.651222    5.160579   82.500153
H    5.627277    2.372341   63.777588
H    8.654846   10.811249   74.733803
H    6.752706   64.619301   64.735741
H   52.143841   46.940750   69.887932
H   21.558933   70.288757   88.857216
H   69.064636   29.336889   61.232723
H   56.065636   38.028152   58.272583
H   29.884018   48.111794   71.059708
H    6.374340   94.385101   64.873886
H   15.744147   89.314552   95.161995
H    7.920808   62.046379   17.359446
H   12.528446   82.332703   33.447704
H   13.083613   70.003059   28.006470
H   38.355537   55.680344   54.375538
H   26.214554   33.840939   81.354919
H   15.275743   38.130894   46.278206
H   77.789131   30.850975   64.118500
H   77.142181   40.486774   14.065639
H   17.556866   38.038815   29.188696
H   27.802130   42.539082   33.729191
H   54.028450   26.687767   45.933464
H   44.117134   89.702438   62.067734
H   85.816399   19.085258   47.936569
H   24.745916   25.144253   25.463343
H   25.789692   82.792976   88.703682
H   99.926216   29.219492   57.348473
H   66.173332    7.124161   78.847725
H   28.889357   68.667641   49.913212
H   14.742089   38.786697   81.125450
H   81.970047   44.628448   11.325551
H   28.965847   63.884338   12.603045
H   12.324480    0.991160   84.169197
H   11.387453   32.074623   95.422272
H   56.157475   56.318748   49.184456
H   12.264783   11.836533   69.536316
H   19.350332   95.042679   37.463646
H   93.041077   22.003695   17.588808
H    4.678208   17.362265   66.027214
H   78.632790   99.063950   81.586220
H   89.574265   84.445656   38.061226
H   91.797958   14.269636   68.497314
H   95.837303   22.045750   81.632431
H   19.631273   64.435486   84.950890
H   48.532829   78.516411   35.911526
H   39.230827   30.744247   67.162354
