100
TIME:    8.643, STEP:  8643
H   32.830803   29.416727   91.233109
H   61.777695   73.216553   23.073399
H   28.336145   95.716461   21.884449
H   82.927307   76.558525   66.411934
H   17.750418   65.531815   31.357132
H   93.987671   91.844490   34.691010
H   99.991310   44.955315   66.347023
H   40.563538   36.331066   14.621665
H   41.166435   55.303482   56.042156
H   38.689034   40.485676   46.129128
H   96.304230   14.012246    7.212366
H   25.961723   56.919491   77.711052
H   92.614136   38.837433   66.188812
H   27.131304   78.435738   14.975697
H   85.583870   97.997475   35.258743
H   54.007217   55.780602   15.596209
H   29.088478   53.637035   60.194740
H   85.887360   74.270638   99.918533
H   79.882370   40.938480   18.709118
H   59.655666   22.270365    4.788217
H   51.388847   95.778778   22.658754
H   90.993172   55.557693   83.247009
H   70.345695   24.332861   85.063446
H   15.998224   40.223602   65.170898
H   20.461140    0.726212    0.370282
H    6.854425   71.307846   77.537796
H   16.783022   83.198135   71.460312
H    3.270985   59.865726   52.465530
H   99.104164   33.252224   48.612358
H   32.403236   76.925064   70.482361
H   56.213634   97.090660   25.572426
H   11.481541   13.716383   99.138298
H   79.158585   36.118889   76.426651
H   43.289856   81.643372    7.636094
H   65.855309    5.273617   50.900532
H   23.958548   62.389046   92.254250
H    8.775506   88.009041   89.500023
H    6.761921    0.779034   32.353630
H   80.248741   93.102196    6.741726
H   49.119064    3.054132   18.047445
H   44.563324   52.742905   45.969814
H   71.828903   75.496689   21.201717
H   85.668854   15.334570   25.766270
H   27.459530   57.719170   25.801388
H    6.939942   90.888802   95.715630
H   66.558342   27.763645   18.274446
H    9.264144   94.873299    8.431452
H   56.715145   84.390091    3.357367
H   17.674904   16.637367   99.700043
H    7.200424   62.285427   79.214561
H   42.908123   35.218010   44.538467
H   25.178965   61.733593    6.676880
H   88.148674   72.123779    0.900065
H   76.537994   66.190247   13.208175
H   52.626564   16.035814   73.856522
H    4.360605    3.442126   98.398666
H   44.179970   40.156487   78.008629
H   82.480408   60.662590   90.930443
H   71.931801    3.965567   47.963112
H   88.670189   92.117371   17.783104
H    4.907274   76.630859   40.519398
H   92.160942   47.494247    4.285490
H   60.835140   17.500074   40.794006
H   36.539005   88.845108   92.480743
H   75.379791   70.542786    0.453441
H   70.395790   12.604157   57.225971
H   94.124008   47.172199   84.345749
H   83.334534   11.839547   79.387985
H   87.667755   28.755470   18.158211
H    5.559730   82.759598   83.511948
H   47.574886    7.329940   58.475502
H   61.536224   64.618553   89.574448
H   43.451752   90.793114   40.143955
H   39.941853    2.404957   89.616341
H   78.813400   41.041576   56.619694
H   29.983019   61.509460   14.365493
H   51.751785   77.727173   44.027840
H   38.040112   85.580696   91.767212
H   75.975670   28.131504   14.112110
H   75.664665   38.194725   76.319084
H   80.016380   18.698160   96.563248
H   89.860062    0.522141   63.929504
H   64.564613   51.659702   53.059406
H   44.773529   51.759621   74.012230
H   31.488586    8.249874    9.911676
H   52.375034   26.524868   41.979446
H   44.401279   74.935646   35.674858
H   95.032249   13.452362    5.963382
H   35.052738   12.944141   57.502205
H    2.180995   53.681328   33.183777
H   77.729851   40.127186   15.986472
H   17.793375   45.515335   98.213326
H   39.486378   86.849144   87.381042
H   82.577713   37.533680    9.582779
H    7.157582   75.542801   14.693600
H    7.798001   54.429077   21.026970
H   76.561760   63.682777   40.122078
H   21.594324   14.116319    5.371801
H   96.980614   74.124763   21.095325
H   76.060608   56.838268   65.133453
