100
TIME:    5.247, STEP:  5247
H   62.489174   40.844643   94.342239
H   55.565590   89.190659    8.945270
H   69.948441   51.393936   61.755764
H   82.357300   16.473896   52.557983
H   48.174149   93.327698   23.436905
H   46.656635   95.523628   98.373802
H   77.974205   15.639524    0.775243
H    7.482445   42.533710   26.431591
H   24.646660   81.815674   69.808083
H   31.452570   91.722511   13.155447
H   12.191864   77.367065   34.332127
H   55.579346   86.695778   19.441767
H    9.245041   44.294304    3.653522
H   95.281212   88.903145   56.540092
H   44.322807    1.344604   98.552979
H   90.552780   52.807266   97.493866
H    2.174512   29.019131   51.043457
H   13.271298   39.516758   17.637762
H   26.992229   98.469742   39.793896
H   51.152039   94.388954   73.572792
H   52.912300   33.862038   14.832073
H   65.415344   51.049454   72.447769
H   15.688973   51.948708   82.226990
H   31.535713   99.597626   17.384937
H   41.920685   70.047180   75.290138
H   22.627535   71.544937   97.014023
H    9.623808   24.364902    4.073733
H   89.815315    1.351933   40.211075
H   25.262306   25.140734    9.144127
H    2.187214   60.976463    0.510517
H   22.557175   92.564423   94.252998
H   97.056129    7.544757   13.522942
H   39.948925   84.587120   70.488152
H   99.799118   92.866570   50.702980
H   50.345490   62.287125   44.233238
H   28.750040   96.395851    2.930426
H   83.054352   12.378799   21.908245
H   47.123043   62.934238   92.708244
H   23.594349   67.093925   35.838638
H   68.983864   20.976471   50.857998
H   76.656586   36.220039   65.962746
H   60.050011   47.346611   49.305340
H   56.436321   94.964645   80.469856
H   44.304386    0.713460   93.760178
H    1.517715   24.872406    5.110111
H   10.393415   62.995319    4.477497
H   82.726852   10.187268   75.832405
H   56.519634   49.412369   93.232582
H   18.406258   97.894043   35.168800
H   35.923084   10.594046   16.682632
H   43.144306   63.079529    8.738750
H   60.126701   76.857498   29.606140
H   17.709835   52.432617   98.130974
H   55.180817   21.592834   63.351952
H   23.021206   18.426702   44.976360
H    0.130822    7.014388   14.006546
H   28.888969   38.146919   55.020836
H   35.352676   81.373100   78.404282
H    4.097250   60.467728    8.667557
H   12.771715   31.090023   14.373421
H   90.685089   34.562473    5.299253
H   12.690424   79.103745   57.945831
H   30.278788   49.237473   73.667908
H    3.341148   70.345779   84.683609
H   40.585052   41.775036   84.199074
H   79.014549   81.429222   56.426918
H   66.591858   29.765549   20.387585
H   17.919777   17.618826   17.039541
H   18.411123   72.770378   31.149902
H   36.689934   12.050543   90.684448
H   55.416939   38.394547   99.205116
H   41.327873   77.387161   40.782661
H   64.877151   58.766563   27.214874
H   14.703098   17.336758   91.395073
H   15.150712   36.120579   99.155731
H   49.702377   43.856544   42.872715
H   43.348690   71.771919   83.844231
H   78.493927    7.631487    4.210823
H   13.126668   38.106632   76.225258
H   42.203049   23.189270   68.887512
H   13.547375   83.564285   93.590263
H   35.014641   78.494461   48.026878
H   49.760101   94.867737   29.641417
H   11.135569   61.156296   84.184570
H   96.843239   20.681473   39.114525
H   30.531506    1.784358    6.150777
H   17.590002   21.853287   73.740707
H   40.413910   85.207474   41.177063
H   64.573593    2.028150   85.277107
H    2.432827   93.398727   11.785749
H   38.751549   56.753330   44.268841
H   66.523766   90.104156   33.503799
H   21.796129   84.957069   24.763142
H   54.369820   31.502516   80.596336
H   65.873772   79.735558   36.655643
H   27.302307   88.533783   96.434357
H   46.119926   68.795280   35.429443
H   26.125029   60.912750   72.070091
H   58.758087   59.468052    5.545006
H   65.120865   43.986828   92.280243
