100
TIME:    4.365, STEP:  4365
H   22.134987   21.728485   95.149734
H   79.925026   41.397224   53.333855
H   54.785080   87.939949   72.106621
H   82.209259   52.812614    0.901703
H   56.074142   22.631502   47.351013
H   60.336948   96.479164   11.026381
H   24.201096   56.084431   31.801691
H   76.805901   66.228882    7.413483
H   46.327904   66.616425   25.325392
H   55.556221   79.058296   78.619171
H   94.233368   41.877659   19.290936
H   89.240120   42.485420   82.223839
H   65.527451   97.629356   91.293701
H   38.951363   91.621712   89.418152
H   33.596581   80.128143   40.950939
H   26.017605   29.950310   70.707947
H   73.099770   70.680511   70.751518
H   94.412682   82.430611   48.213505
H   13.254719   61.472549   93.328201
H   74.915672   13.120466   13.522074
H    5.251419   21.667591   38.769989
H   80.857147   49.878586   47.558197
H   27.464989   59.121956    7.461713
H   13.485741   89.032990   82.890289
H   73.466827   39.993568   68.776344
H   26.648188   97.613571   79.953270
H   85.680214   61.031208   86.576637
H   64.234741   60.183151   11.054059
H    6.083426   45.118710   50.835945
H   68.366760   82.805748   30.393120
H   87.845421   13.473840   64.034035
H   41.365887   31.911491   95.174156
H   77.822609   49.117867   91.030624
H   62.533218   73.696564   87.861214
H   72.268982   28.959709   90.526886
H   52.079472   27.314640    5.705063
H   98.459671   44.680649   52.410206
H   83.578331   79.071129   30.467457
H   60.826603   86.312309   21.311220
H   52.058716    3.546117   81.463867
H   36.934418    5.959100   45.183208
H   39.319809    7.760776    7.873034
H   48.839138   89.675552   16.762678
H    0.624787   85.922729    7.521683
H   78.023720   59.668716   29.635900
H   21.773197   46.172504    0.892016
H   75.836227   62.221458   67.367165
H   56.472530   40.328049   38.659370
H   92.624802   70.939606   70.354187
H   17.424717   97.170860   78.370094
H   43.211597   48.231133   99.440674
H   17.263327   58.700718   87.507538
H   99.414757   47.318481   49.357487
H   75.607536   35.986435   24.431343
H   93.246796   41.126507   37.473385
H   99.027817    7.942166   44.031906
H   72.972931   63.596474   71.135246
H    1.028925   64.667274    1.121918
H   34.534782   23.201035   76.380363
H   70.972824   63.297733   39.459602
H   35.048676   75.578392   74.065437
H   43.992241   87.313278   97.850571
H   70.401299    9.423047   34.149315
H   42.776428   65.541183    8.628262
H    5.575890   12.218327    2.062133
H   33.196144   25.275612    4.276535
H   37.356796   99.273102   77.804184
H   78.845284   67.176224   74.874840
H   74.454147   36.145264   86.467316
H   18.821623   67.690918   92.541687
H   83.423561   98.404892    9.785892
H   14.053261    6.659063   76.207359
H   22.385485    2.397038   49.831467
H   34.119305   73.154640   43.800163
H   72.624275   34.862232   32.295132
H   28.848818   87.328453    2.221032
H   63.269669   48.217648   68.246117
H   37.055965   65.305260   55.503761
H   70.829063   40.697346   66.387276
H   85.457275   71.227760   44.872520
H   96.289566   74.439590   40.874294
H   68.837242   72.734329   21.779074
H   93.969337   80.118134   45.644756
H   50.454430   85.681343   64.740585
H   39.790527   75.852135   24.614502
H   50.833279   69.390160   44.902130
H   58.683205   85.981857   31.683668
H   26.216825   55.821739   50.348862
H   46.270370   51.135719   92.490730
H   80.414261   29.687683   80.254745
H    2.656392    9.129688   25.642618
H    1.262330   23.771126   16.699827
H   65.258476   58.490044   56.556683
H   69.122391   78.002991   21.128553
H   81.121971   58.740417   16.390106
H   54.452698   23.362110   41.991127
H   16.129364   18.178799   86.153595
H   22.888319   53.403046   86.187798
H    0.774734   55.666096   79.422676
H   10.338734   66.617653   77.246307
