200
TIME:    0.689, STEP:   689
H   23.267954   60.984859   23.017199
H   31.966240   39.433048    8.125065
H    8.727049   88.790810   67.463860
H   32.977600   82.221779   32.758457
H   10.442995   95.109085   47.202961
H   75.011841   40.628429   52.259624
H    9.864432   54.985550   58.342106
H   12.950465    8.274562    9.134920
H    5.662602   80.774925   36.766068
H   95.055573   68.609489   78.362114
H   27.843626    4.185638    7.150490
H   32.634476   54.007298   34.136143
H   22.194324    1.909425   42.889366
H   83.181747   55.101292   63.901882
H   97.944168   75.401016   41.873837
H   16.212891    7.466423   44.637127
H    5.329236   28.747389   93.632149
H   25.900496    4.752011   35.526733
H   79.964455   13.446664   49.093525
H   91.484726   73.538597   20.065258
H   63.473541   99.171944    5.269980
H   80.033134   65.976616   53.271996
H   81.559738   59.276863   38.362701
H   18.118547   92.152771   90.178162
H   22.762321   30.762087   29.388828
H   18.289415   82.262840   92.127136
H    7.590897   67.806084   67.134766
H    4.814913   88.651642    1.912722
H   29.979607   42.882149   35.709217
H   72.759605   32.792534   83.094238
H   12.775287   70.207832   16.743765
H   23.761139   74.029770    4.657764
H   16.274429   18.646893   78.663536
H   81.566307   64.067780   46.138344
H   26.441204   71.247971   30.803467
H   18.394558   39.684551   84.625153
H   99.151566   64.737984   89.325722
H   10.705759   56.369804   94.979729
H   36.452675   30.322660   54.412113
H   85.776772   37.842091   46.157318
H   80.637909   84.249046   16.427670
H   35.687912   33.691631   26.517199
H   68.617447   77.467453   67.000671
H   36.280991   85.041252   34.806534
H   44.118366   89.994118   60.566994
H   34.741276    2.153337   47.571068
H   88.435379    4.214510    6.023252
H   79.184738   65.543755   31.506241
H    4.444779   11.713346   61.490051
H   46.049629   19.827745   86.717155
H   67.527222   64.813049   10.074606
H    3.974458   43.426128   73.195061
H   64.286705   81.580933   13.796399
H   15.724090   91.658905   88.352249
H   58.193680   66.399315   76.252243
H   99.549858   61.288380   93.350891
H    4.149096   18.444557   44.838200
H   72.314133   69.017189   97.199165
H   18.706814   83.151077   17.985981
H   32.718590   93.467934   58.694008
H   48.965351    6.616295   29.117987
H   98.006248   17.488531   52.508255
H   83.817146   34.507591   69.736923
H   35.005119   65.792923   13.692425
H   78.566109   82.772690   36.290150
H   21.126457   34.005028   40.934006
H   69.403419   13.690960   95.111641
H   94.827034   92.470757   96.160980
H   32.493454   11.920838   56.296738
H   42.652351   49.455765   50.958614
H   58.268192   84.357964   85.291489
H   19.521452   12.019936   41.621841
H   91.744278   33.425503   84.460808
H   22.493286   99.095383   73.644264
H   84.612289    8.139844   46.500755
H   64.662766    3.224928   59.943447
H   93.529800   46.665401   65.794518
H    9.924975   14.145985   32.614006
H   14.944168   49.697327   24.993940
H   61.509903   88.162834   72.968109
H   62.424702   22.513493   94.467667
H   46.379662   60.515373   73.976707
H    9.247948   18.591454   77.142548
H   10.032204   76.541710    8.485344
H   22.919239    4.071830   45.057812
H   37.316730   70.064529   18.436077
H   55.978893    3.719726    2.800704
H   71.597588    1.833070   28.377489
H   79.428879   73.150063   78.787781
H   21.195225    6.172937   49.925793
H   22.421309   38.768860   78.757362
H   80.927856   92.474899    8.164890
H   68.589546   11.798208   82.942070
H   39.893913   78.302505   81.433395
H   36.501831   50.852615   86.640121
H   50.677925   37.748013    7.950714
H   85.396309   98.749001   17.666443
H   94.551788   35.415379   52.844738
H   26.843880   65.280220   54.472439
H   75.011368    5.223131   27.360025
H   29.899015   92.840759   90.082588
H    7.268117   83.449532   63.387894
H   32.486748   20.760750   36.777031
H   43.450722   68.768478    7.993009
H   24.743542   21.572140   39.644615
H    5.198838    4.789963   22.869213
H   86.927841   35.671944   54.169617
H   62.105408   51.513699    1.379524
H   84.207230   34.422001   20.844028
H   18.790213   21.800108    7.734786
H   53.101986   92.165024    1.111755
H    4.022618   74.636169   95.625580
H   49.295666   85.484993   84.168991
H   61.703209    9.717463   63.375553
H   48.866692    0.665464   11.029331
H   95.714661   92.662834   99.189949
H   14.114347   14.765079   89.414413
H   38.493092   49.096725   25.003441
H   35.913914   74.570976   61.348839
H   82.631775   55.636227   66.092438
H   45.240791   24.743130   72.806885
H   98.915810   16.843548   61.395557
H   43.061287    2.885570   37.349075
H   97.462166   51.161640   98.202782
H   63.481178   97.835220   77.963165
H   64.172066   74.636856   16.862053
H   84.226036   51.286392   53.714386
H   65.607483   91.091484   38.794712
H   97.993210   36.230919   74.658005
H   89.508018   22.021193   74.150970
H   66.733795   69.153900   20.570164
H   64.465820   90.504654   19.915508
H   90.971596    4.439599    0.715346
H   78.904243   24.514862   55.233173
H   26.607021   93.251480   35.784508
H   50.399315    1.050601   77.066772
H   69.636070   87.708672   77.690689
H   95.048164   50.201691   76.103958
H   58.049332   50.612755   71.443893
H   43.691162   87.556068   82.981461
H   72.846367   49.864697   29.413895
H   36.568237   54.653271   56.713806
H   40.571743   65.025032   84.239677
H   37.138939   10.274646   85.564827
H   61.407047   54.875999   63.750660
H   62.391567   69.711182    8.341976
H   55.350609   94.811501   44.066971
H   30.392227   56.705200   66.248924
H   77.188568   46.045765   93.480904
H   23.774790   93.576828   73.194374
H   60.394352   68.935333   47.954567
H   52.688107   94.685638   34.081684
H   97.034218   15.049732   87.703072
H   21.778952   11.448943   64.857010
H   31.417084   65.737000   68.875992
H   76.831100   44.642223   67.875160
H   64.011185   74.349220   86.072311
H   52.429668   29.455864   20.243288
H   91.831818    0.042527   85.953278
H   58.645760   38.623718   95.471832
H   58.366405   66.168076   71.477676
H   22.522591   20.729464   31.654209
H   84.546577   14.993620   37.045357
H   27.755966   33.369926   51.989109
H   54.655060   37.323711   14.236287
H   19.649553   50.152840   59.847382
H   67.168259   90.304695   56.981567
H   24.024445   51.361118   66.579453
H    0.173984   26.710049   35.796711
H   46.963169    7.071369   85.347168
H   70.787292   10.973470   35.938393
H   30.651756   48.769733   58.836918
H   46.348270   58.160751   77.790421
H   65.697021   63.798435   84.656517
H   50.569122   91.658905   78.119461
H   14.769939   50.086174   23.717518
H   30.805176   66.947624    5.690021
H    5.709415    9.629059   70.621506
H   64.118965   10.941559   63.883438
H   64.941925   59.271492   92.718933
H   73.220360    1.279526   31.279848
H   28.284092   30.654140   86.007652
H   44.961411   89.693794   14.962395
H   61.259007   26.051193   93.708519
H   91.329353   68.859856   76.547012
H    8.660056   40.012482   86.201393
H   46.986420   96.833771    9.213921
H   68.850060   86.243477   41.237698
H   93.615242   63.175667   71.674957
H   57.778484   55.830860   71.375809
H   69.269234   16.169239   76.095100
H   43.972111   97.131180   18.905352
H   14.073755   28.205896   68.092255
H   27.259464   81.450432   42.362000
H   69.486267   34.200172   20.347559
H   76.424332   11.485204   23.414854
H   12.445832   97.802498   18.621626
H   15.860526   88.482498   34.303989
H    5.925793   12.868233   57.936211
H    3.324714   19.780684   91.510780
