100
TIME:    8.043, STEP:  8043
H   73.406975   84.439812   91.782425
H   78.348740   40.702900   85.242325
H   18.022730   52.549347   28.927143
H   82.826599    1.277885   99.297676
H   23.126852   17.439167   47.625961
H    3.290675   92.494514   75.271828
H   31.436951    4.438655   19.426243
H   87.722351   84.423576   69.713020
H   55.915581   12.991187   93.808624
H   55.076973   31.870562   22.635784
H   52.114761   89.870300   65.006088
H   48.863640   26.844418   20.419407
H   30.874413   75.153229   25.816057
H   56.839790   80.285103   69.316872
H   78.296272   51.592422   64.111603
H   78.131363    8.258802   65.401642
H   77.336769   13.953444    5.574376
H   73.060822    3.466727   20.716331
H   70.534836   15.766057   87.098557
H   75.822647   35.011677   63.937447
H   86.993706   55.511982   38.942722
H   33.470585   54.761185   34.342514
H   78.356560   29.210333    2.229737
H   71.747971   33.045868    9.730269
H   41.919868   48.310745   95.939308
H    9.683971   88.995834   34.000092
H   68.522980    8.138076   59.556751
H   53.896080   31.859747   32.630630
H   86.057899   78.815994   76.975395
H    9.397953   91.774918   22.783829
H   32.597607   43.286880   73.042519
H   73.597252   30.292164   54.683266
H   36.894909   80.018425   22.373915
H   17.937634   36.629677   32.911606
H   80.787560   50.702049   14.393930
H   71.802002   15.391259   94.140236
H   51.226902    9.982691   42.222195
H   31.560841   11.759724   90.013878
H    5.573076    6.174864   64.885872
H    5.633110   59.225395   70.841980
H   85.569794   32.157272   31.834074
H   22.393837   73.143784   90.569878
H   80.505280   11.735403   82.427498
H   65.769562   47.643791   67.136383
H   58.984261   14.557970   44.371490
H   74.303703   16.321842   15.836855
H    4.573388   62.243904    2.669510
H   56.678524   78.210281   66.232811
H    0.137736   66.327827   23.634911
H   94.604736   53.153042   21.165508
H   42.949322   93.143425   38.212173
H   96.017914   17.407778   46.064087
H   75.706657   68.644775   35.747078
H   90.435699   75.977234   86.732254
H    0.398799   63.455994   68.757034
H    3.613306    4.073268   18.824097
H    6.144090   57.469109   20.943810
H   27.157156   17.325205    6.385087
H   24.608555   78.614174   94.024887
H   28.263939   46.000469   34.848534
H   67.059219    4.535578   87.300545
H   13.456154   53.078964   31.433659
H   20.099419   58.443268   81.937805
H   95.337883   85.576675    8.770097
H   51.564537   18.462938   44.578796
H    7.254498   42.431908   21.749287
H   42.263885   26.430313   55.378460
H   24.780891   77.524895   50.704514
H   57.765678   71.867653   55.790962
H   93.373894   52.622166   84.784531
H   66.630959   48.156731   65.671547
H   10.946265   84.540428   45.594433
H   82.572235   20.472784   55.529392
H   53.148335   40.378155   25.265478
H   49.910202   40.158092   11.127264
H   15.796939   23.053268   54.736626
H   97.258507   29.658417   33.384834
H    9.854053   24.811047   58.625866
H   47.203316   29.893894    7.416172
H    5.089449   70.879051   28.009468
H   68.270164   12.490884   60.702042
H   44.836372   96.630615   14.127140
H   26.611822   41.625523   95.917175
H    3.495400    0.415780   28.813541
H   60.703064   45.782154   68.074379
H   66.185043    4.485835    0.313391
H    4.328593   18.560860    7.064610
H   85.382591   61.466309   12.184578
H   22.599838   46.350533   62.409431
H   55.230228   78.365860   11.735615
H   53.175404    7.730958    3.315362
H   73.399452    0.390276   86.778389
H    1.025420   68.849876   40.982117
H   24.591032    1.132399   69.125923
H   17.532749   29.286667    0.906904
H   58.240417   78.122925   52.017570
H   24.186708   29.249977   74.628304
H   22.752466   84.426979   17.417852
H   25.562889   71.533821   71.352531
H   38.792583   72.235306   22.932217
