100
TIME:    0.338, STEP:   338
H   94.465248   91.025063   98.836563
H   91.868111   23.070549   99.321503
H   85.571747   98.221306   19.371193
H   81.533340   18.724592   21.635984
H   92.143616   99.849716   56.540520
H   22.775055    0.845779   12.218496
H   35.256130   84.161064   16.884813
H   93.320160   17.843716   77.160439
H   45.319313   53.796097   78.811745
H   65.603584   21.239395   20.925104
H   68.815094   79.842758    7.191956
H   42.940731   40.632759   68.869865
H   21.762547   41.258011   91.534599
H   38.346119    4.035135   82.962074
H   84.613655   39.831337   34.524776
H   87.933441   82.173592    4.982842
H   96.891869    4.349524    4.129193
H    8.367503   78.263641   87.828415
H   50.527496   92.531891   81.169525
H   83.500038   98.445129   39.247063
H   44.219147   22.568230   48.068329
H   94.757362   44.546059   90.475349
H   81.231239   91.873283   22.679771
H   87.637650   40.735538   81.972275
H   17.494661   59.368580   39.054398
H   45.109165   17.538197   57.492073
H   32.932331   28.426373    6.673378
H    4.022011   72.215881   77.947586
H   18.520798   79.758110   41.194305
H   13.954219   82.474228   10.258850
H   29.397707   52.352638   82.665459
H   87.098969   43.172310   67.973732
H   94.165710   43.752205   28.246664
H   92.383186   42.746948   57.511711
H   72.370308   33.370071   45.309685
H    1.942510   11.037264   19.481321
H   12.217954   92.157082   35.098278
H   50.019043   52.767864   46.292477
H   35.524906   73.292686    9.730517
H   31.357941   80.541084   64.628410
H   12.143711   67.776558   50.303226
H    1.243653   27.026926   18.679800
H   14.152637   65.526825   25.887531
H   57.775711   18.436110   13.779770
H   27.336807   18.556019   85.030823
H   73.634636   69.558159   84.643761
H   39.649036   43.974598   30.511419
H   56.257465   98.862930   89.491486
H   74.908562    4.456819   30.990606
H   32.978725   35.893970   60.023521
H   43.518833   37.012199   56.980701
H   21.558855   32.374748   51.873787
H   15.890408   23.968567   83.239906
H   68.860016    1.687136   46.731037
H   13.850859   88.135712    3.274232
H   93.989151   12.176722   81.120483
H   17.680077   79.794014   88.133980
H    0.890839   44.966850    4.848589
H   16.934708   53.050140   85.535263
H   36.713867   53.768486   53.996056
H   81.021805   62.850517   88.042694
H   86.914856   24.799301   80.061890
H   97.158730   84.104225   10.369929
H   66.250374   43.633118   17.963339
H   45.738335   33.848423   27.038137
H   80.581551   25.470142   66.171059
H   60.450340   60.046009   83.380600
H   57.017830   36.868271   82.360954
H   73.749168   25.499794   39.034023
H   37.233528   65.145653    1.020002
H   11.299086   72.407005   58.093632
H   46.097080   40.308022   81.368782
H   84.953262    1.589054   53.082615
H   22.751312   27.990061   83.120262
H   78.467453   29.124632   27.020916
H   33.649136   29.234823   73.185684
H   97.642822   97.248650   97.014099
H   47.860184   28.619411   33.106678
H   77.754509   52.511684   21.457275
H   82.949326   90.546120   91.802246
H   17.496197   32.778423    0.190514
H   66.684517   46.434952   58.517014
H   39.182186   12.898971   62.092682
H   73.421844   41.084690   32.557594
H   35.872360   27.741608   14.987031
H   43.514034   21.469139   65.254997
H   89.728966   78.777565   39.660305
H   61.396301   78.232979   92.225563
H   62.697456   75.352989   25.435410
H   36.452187   95.379044   36.295025
H   37.854923   91.682800   40.599682
H    3.295262   20.926855   39.964302
H    6.970993   37.758621   45.063591
H   79.897011   33.734528   49.607639
H   50.748234   19.453304   23.853458
H   21.839035   82.384148   49.990852
H   35.773155   87.077629   17.750343
H    8.106181   19.115540   50.627457
H   92.610649   38.307278   16.739536
H   60.232433   70.022301   65.131821
