200
TIME:    0.374, STEP:   374
H   13.588752   62.030277   17.630894
H   29.158632   34.834412   95.337044
H   15.329103   75.003311   51.948418
H   22.359455   78.539986   40.995628
H   13.787431   87.125458   51.731903
H   85.259338   49.178024   61.583069
H    5.300643   55.209053   52.245037
H    5.891492   94.672821   20.315899
H   92.870384   85.497330   44.450489
H    6.144156   73.021873   90.786964
H   16.864336   97.456734   97.196198
H   31.331909   45.599495   19.127104
H   14.463038   91.455055   55.799675
H   98.069939   53.772289   48.722897
H   13.152310   72.976128   42.648888
H   25.394543   20.445225   51.432343
H   90.511154   13.994381    8.926140
H   33.380150   89.608795   41.134739
H   69.483841   24.850662   44.456436
H   90.482567   77.864464   32.276218
H   59.693214   83.447418   19.701328
H   87.045845   53.936287   65.410858
H   90.992531   61.567169   45.920952
H   11.446500   89.280876   91.165901
H    9.070802   18.093306   40.628872
H   18.550169   68.283081    2.530844
H    1.490646   61.485508   54.469589
H   97.585480   75.657219    1.083861
H   16.712414   52.456734   37.553719
H   86.994110   24.354033   93.990616
H   13.186544   57.047581   16.358643
H   29.489307   66.646957   96.902214
H   23.885551   11.868917   74.815918
H   91.991646   63.724113   40.632477
H   41.557926   84.264023   33.199818
H   28.684113   46.866692   81.013054
H   90.110504   71.536804   86.960915
H   26.286793   48.221554    9.142544
H   48.110886   41.602268   47.410217
H   88.797668   39.137447   58.462006
H   80.544182   98.964203    5.972030
H   20.009050   40.296989   35.857819
H   74.289139   84.703667   55.304005
H   36.982742   69.742104   23.540804
H   33.355370   80.383484   49.199577
H   39.174088   10.351171   44.145222
H   82.499329   19.647232   99.117210
H   86.853539   65.548561   42.830399
H   92.262604   23.667049   61.262943
H   57.322117   18.406218    0.043233
H   75.020584   68.800056   22.558193
H   16.015688   38.004375   66.422676
H   55.790222   90.587440    9.681283
H   20.412266   85.011490   83.687523
H   71.526962   73.404816   86.439659
H    3.587870   69.048927   83.036102
H    5.048065   17.252541   48.217182
H   68.872665   61.694462    2.884906
H   25.353628   77.066025   10.367427
H   40.004070   95.236732   64.517105
H   49.985535   12.762030   38.321457
H   92.344299   16.742319   50.093121
H   75.138977   27.982374   80.364136
H   27.372730   65.343513    6.659315
H   73.502441   78.076721   23.409082
H   33.483345   21.767130   35.271927
H   81.169777   20.335476   88.603615
H   96.591026   91.754585   89.924522
H   21.288885    7.664065   60.283745
H   44.465611   43.965519   50.975437
H   58.406380   78.909775   76.865662
H   28.374458   20.299620   43.826832
H   81.746719   27.979717   95.008713
H   12.230878    6.019290   64.473427
H   80.776688    3.040728   61.312042
H   56.700768   14.345775   62.001839
H   94.861206   34.938698   70.250160
H   21.592041    8.410006   43.385414
H   12.549320   35.663471   31.970608
H   66.256973   89.919617   87.906769
H   49.055370   27.837313   99.144409
H   32.528477   66.180595   83.714714
H   10.476914   15.136168   86.359047
H   20.304335   66.241341   98.218964
H   34.136452    0.740835   53.984718
H   28.442455   81.085876   24.993370
H   41.860947    3.063335    2.078525
H   74.217140   13.557056   16.496376
H   69.787003   72.383423   77.653442
H   22.772964   92.053398   53.391293
H   35.625580   36.049572   80.158463
H   83.122032   89.711151    1.291711
H   53.625286   15.350826   91.913437
H   54.019070   89.619453   72.784065
H   28.520344   55.113594   73.520729
H   63.722816   30.705261   22.761263
H   81.123314    9.644400    4.100265
H    3.210951   30.520958   49.862293
H   33.981560   68.435699   53.356125
H   69.534340    0.104951   27.283121
H   15.844758   84.131348   75.249672
H   95.555183   78.683868   65.125450
H   25.957090   32.272949   32.375462
H   28.314848   68.186890   95.483643
H   25.161108   25.711754   29.431965
H   92.728020   20.212278   37.617188
H   72.006004   31.760637   55.635605
H   63.961926   39.419296   13.560076
H   76.201973   38.398193    5.612171
H    8.671290   26.192064    6.193095
H   48.957565   94.902336    0.890130
H   91.374527   66.715027   92.037514
H   54.766685   81.829636   91.020683
H   62.770256   16.508472   71.498474
H   59.378548   87.548492   22.074245
H    8.569875    1.877170   84.979477
H   27.065556   10.329564   85.742233
H   40.091259   33.592098   31.299980
H   23.951288   62.744541   76.916946
H   74.318901   49.349300   54.341484
H   41.953133   22.649891   83.128883
H   12.507259   24.305668   52.129791
H   35.466988   16.171078   28.004259
H    2.103017   62.496613   11.997147
H   72.906761    5.634305   88.381294
H   52.631618   66.018768   22.944101
H   92.055855   49.815598   65.879684
H   72.497627   88.620934   36.134304
H   94.116753   47.633183   81.836540
H   74.240112   23.514217   68.784492
H   54.018150   80.401154    8.532238
H   76.556618   87.380417   12.487035
H   92.000191   89.114189   98.371933
H   94.349991   16.438671   51.356636
H   11.045821   98.947205   50.259338
H   58.789093    1.454874   81.707466
H   69.114563   86.905983   62.009422
H   92.361320   60.037029   81.081108
H   49.815765   46.207581   71.518394
H   43.520531    2.663125   91.734131
H   57.251614   59.128059   19.238495
H   51.069504   45.082291   49.370647
H   50.697876   59.227383   94.864487
H   51.572914   21.677061   80.344948
H   46.600567   65.322968   53.450291
H   50.849915   64.284622   23.428436
H   47.900505   96.190971   46.322430
H   38.993492   68.430702   68.056175
H   68.767548   59.197601   96.612350
H   13.733440   90.137764   84.982361
H   71.497017   63.585674   50.332592
H   39.428123    3.401993   43.953072
H   82.400772   26.828106   98.760468
H   13.452168    4.218516   72.641167
H   18.926144   57.417866   63.177689
H   67.480019   43.861164   58.183540
H   60.713909   64.902008   82.342453
H   47.951195   34.509918   12.863480
H    6.248902    1.229424   97.635521
H   62.177349   51.476349   83.383438
H   55.272209   78.965431   79.853035
H   37.312634   22.361877   34.383110
H   70.987389   28.727646   37.176334
H   16.193285   24.116177   65.465515
H   57.671150   26.635214   11.141190
H   14.222392   60.175632   61.569317
H   72.592415   95.399605   53.642239
H   23.749271   37.029282   53.553791
H   95.893745   27.734438   36.540520
H   32.588074    9.448493   88.894379
H   76.805054    7.227390   35.964828
H   41.533791   60.470001   57.869606
H   40.262016   71.696426   86.653641
H   69.575935   71.332619   77.348206
H   65.209778   94.028519   92.930748
H    5.044549   48.384666   23.415304
H   34.041164   57.107117   92.513451
H    2.917608    9.328651   66.593643
H   72.174690   18.264498   67.567596
H   79.926247   55.892509   88.275307
H   78.971359   89.991341   38.603722
H   21.930475   30.269619   74.508057
H   59.465977   90.026718    8.722151
H   54.398903   25.468403   82.120003
H   87.255829   82.522385   77.844772
H    2.065678   37.354477   84.624855
H   36.017944    2.229249    2.234236
H   83.983383   72.900581   30.215248
H    2.737835   61.770962   68.074875
H   52.050316   57.544384   67.396011
H   54.221645   26.590973   78.344551
H   46.554413   88.570770   22.917593
H    7.076947   20.711933   60.875786
H   32.762409   68.878983   36.013790
H   80.296127   48.270054   21.377956
H   75.655289   10.712255   27.730507
H   10.351993   89.213249    7.989606
H   25.015146   94.742989   43.187637
H   10.126390   11.986837   72.024117
H    6.610135   30.452957   95.887115
