100
TIME:    2.966, STEP:  2966
H   16.743935   50.023979   96.430557
H   18.765633   65.558212   65.094376
H   30.737631   87.290298   88.522499
H   81.974442   10.450602   77.587341
H   68.604858   10.495481   85.284714
H   82.027351   97.994804   72.479424
H   97.522972   61.617493   22.398003
H   86.764542   45.198147   35.865833
H   80.717995    1.124488   13.387451
H   93.788780   58.970726   23.834826
H   24.364929   85.586105   54.048763
H   42.637573   72.360977   81.806175
H   54.594170   82.260162   30.332958
H    8.222217   95.933815   82.954048
H   16.578148    5.092470    8.198640
H   82.267639   52.311920   86.837257
H   85.599007   78.148010   43.395031
H   64.526817   50.464119   96.717468
H   91.463097    2.778968   19.623278
H   12.610977   42.828274   18.271662
H   88.270081   60.943581   76.739288
H   46.733658   48.021393   66.695984
H   46.143654   70.499931   47.490128
H   43.467987   72.254211   86.792610
H   23.502609   50.941383   58.445129
H   33.059086   39.232128   11.168539
H    6.316933   19.183455   58.823490
H   82.279198   94.882576   64.814445
H   75.663437   18.190783   16.967852
H   14.723290   17.431870   19.177006
H   32.785336   88.022522   74.718468
H   53.032204   70.562126   24.686562
H   79.279022   51.475380   64.997658
H    3.421237    1.906628   46.797653
H    7.044070   34.713379    5.338172
H   30.436878   17.479246   10.444268
H   64.276039   95.913559   42.174435
H   41.400558    4.667971   31.743824
H   19.876114   16.792948   56.884689
H   83.829147   34.516098   71.393837
H   32.546154   57.952137   12.223678
H   65.053978   44.974731   42.145920
H   36.788731   81.286163   15.711202
H   89.960388   62.482979   70.732994
H   99.377449   14.869143    9.919360
H   39.822124   19.488697   95.212318
H   64.906540   86.138458   53.931877
H   56.397816   25.921045   52.097191
H   51.727066   86.805534   26.158587
H   88.087547   75.887856   76.218048
H   43.318333   83.295135   84.689865
H   49.274342   88.516571   79.349876
H   70.404121   39.206604   30.608307
H    8.009716   58.817101   62.697784
H    4.635332   18.516594   25.575289
H   97.277359    9.414827   91.657166
H   84.283180    3.963934   38.078804
H    5.202029   96.785187   37.159256
H   24.199081   64.089523   83.782127
H   63.291939   55.765568   79.250496
H   46.798531   40.638912   83.142960
H   93.645470    0.335040   61.154335
H   75.422874    4.888258   30.082962
H   46.709740   57.928802   46.615330
H   50.048885   23.954201   71.779716
H   19.138954   94.824287   21.557545
H   49.601021   50.903584   10.260409
H   75.483803   87.165466    7.994552
H    4.725993   36.668480   74.211006
H   90.476379   97.323311   95.487579
H   27.849148   93.592720   26.570007
H   29.407198   53.089386   73.779205
H   13.602682   71.594658   85.698723
H   64.920403   61.686470   26.930351
H    5.175171   32.866283   26.241199
H   95.773979   97.665031   96.355865
H   36.248379   69.474503   43.504887
H   71.328400   56.782200   78.241592
H    3.744481   44.806652   50.773544
H   54.067146   47.419796   65.397659
H   68.922653   59.966290   57.259480
H   63.867676   63.597794   38.762794
H    5.457745   56.764465   12.396652
H   54.205509   65.966034   92.518921
H    7.909377   63.360943   60.231987
H   83.028992   17.999722   47.751308
H   65.247154   87.700554   64.973633
H    3.701029   67.829285   64.897530
H   17.235676   29.029615    3.934072
H    4.103765   87.245682   30.245632
H   45.403564   33.587543   96.098221
H   97.745041   18.566248   90.039696
H   75.580994   16.511076   48.369774
H   33.903027   93.142357   26.801182
H    5.309082   84.053406   84.242851
H   38.901047   78.607430   14.251400
H   27.174992   37.893093   66.612206
H   17.754354   41.491394    8.577805
H   67.420067   49.635555   96.602928
H   23.440966    2.522721   12.015037
