100
TIME:    3.540, STEP:  3540
H   77.926666   97.385376   95.905045
H    2.798078   96.677322    1.302167
H   40.604134   28.585346   81.787178
H   82.070786   86.801567   46.124157
H   63.463593   56.504116   69.720779
H   73.128670   97.372948   29.323812
H   67.437370    0.374354   67.285545
H   41.649277   94.857437   83.163017
H   66.607979   45.936874   77.257240
H   78.102226   67.212517   46.313629
H   70.972855    8.682129   98.759102
H   20.728073    1.132758   40.947563
H   18.083340   47.532532   73.281212
H   79.801048   94.164589   26.635555
H   23.560898   53.820114   80.608376
H   59.188873    2.107637   39.190773
H   39.441475   16.114887   95.648514
H   76.788780   22.550636   76.818054
H    0.405452   26.860468   49.862156
H   97.146965   30.640512   57.352287
H   54.208099    3.798494   61.158638
H    1.763596   48.783386   17.814545
H   38.479927   65.831627   31.067730
H   90.137123   79.138428   44.162731
H    2.974088    5.418846   62.683510
H   30.425833   22.129805   57.365967
H   56.821461   95.322830   70.211586
H   33.847172   21.674927   83.785454
H   88.144363   70.268509   89.835121
H   36.731857    3.224524   64.808411
H   55.378002   39.494160   29.305412
H   89.275063   54.702972   71.548531
H   19.709959    9.479332   16.708113
H   27.675270   49.302834   22.616161
H   92.775650   91.323143   40.289146
H   80.347160   62.571911    8.467420
H   19.331406   74.893051   87.403557
H   17.678040   94.164742   72.248604
H   95.646973    4.287935    1.260327
H   29.765331   80.780594   16.553701
H   93.318314   77.648758   25.746565
H   13.466148   70.736847   69.113480
H   41.732929   84.728271   57.170635
H   53.305878   72.100555   26.856703
H   49.586391   92.221741   59.038265
H   32.416775   30.436878   97.542091
H   69.390915   17.355015   59.445381
H   56.428471   31.830873   87.613091
H   68.505234   39.266434    3.260960
H    0.121826   84.620125   36.071926
H   43.274540   27.879658   90.742020
H   77.170303   35.253494   41.668018
H   82.306984   42.534851   97.271248
H   94.716881   49.449837   88.027496
H   58.933304   68.821716   30.455988
H   97.995560    8.810720   72.116852
H   20.672922   87.401329   92.670815
H   62.460442   42.578552   22.373405
H   69.468147   88.341934   39.715473
H   25.415611   99.883179   62.924568
H   83.006355   13.946427   38.389301
H   73.273094   94.992264   35.180870
H   14.390473   65.719902   90.722038
H   86.125114   61.051224   31.029499
H   72.832542   78.110542   25.234148
H   83.877449   66.288948   55.496231
H    3.547287   70.747559   37.974163
H   35.833870   19.993723   35.435070
H   33.335411   95.424515   38.210247
H    2.107285   26.193922   94.278900
H    9.620810   54.538368   19.683601
H   82.077682   34.039551   15.803550
H   76.176712   43.202663   70.984367
H   52.284512   25.360806   92.819786
H   32.849545   33.685207   69.753944
H    9.343472   34.453232   57.731396
H   88.364052   19.722610   53.656040
H   98.295959   19.248201    9.939894
H   31.268614   43.120632   57.180420
H   25.917183   16.157280   15.946917
H   80.151108   65.904587   91.566696
H    6.934007   67.346451   90.764526
H   41.774731   66.346313   67.067413
H   93.696701   15.084295   40.092270
H   79.960434   27.455288    4.589176
H   69.821106   39.084465   87.611450
H    3.583331   45.966087   92.344086
H   12.939104   21.873199   58.927925
H   29.149487   97.071159   99.238167
H   53.355587   63.632576   50.762711
H   68.893982   64.579735    8.220132
H   40.218132   61.732735    0.978990
H   12.375243   33.734756   92.758080
H   89.382027   27.959423   65.501274
H   95.384743   32.638073   97.433220
H   86.311050   55.940315   84.603203
H   81.613983   70.833977   33.601250
H   19.860785   46.378662   99.393135
H   40.075890   52.109844   48.525375
H   59.092625   87.791512   56.721054
