100
TIME:    9.389, STEP:  9389
H   82.382477   61.005531   90.550125
H   41.174362   13.639362   70.112602
H   41.159161   49.385902   13.127565
H   83.052521   45.824272   25.519091
H   11.065718   25.326736   11.131943
H   82.422485   91.036293    8.569652
H   60.890965   95.327492   24.685207
H   81.929413    0.870497   46.127411
H   22.828331   83.577820    9.082747
H   18.311449   51.197132   75.338051
H   26.913116   44.027756   35.351357
H   97.487511   94.312828   24.609489
H   45.044342   93.685249   92.054718
H   90.194763   76.136360   71.747917
H   94.644783   31.361061   99.384789
H   24.012104   90.532578   53.671936
H   69.099464    2.981112   28.106062
H    1.845053   37.970070   74.056229
H   91.504471   72.234695   58.009121
H   39.558880    6.427996   55.579369
H    7.119854   21.512861    2.410264
H   62.512920   56.548019   19.718170
H   60.385521   18.268538   63.720215
H   46.684689   49.147919    9.764971
H   93.780624   41.566231    5.877017
H    3.335571   49.315781    7.334883
H   52.455589   52.188519   86.258286
H   40.325050   94.686493   77.123894
H   15.326095    0.935852   13.349155
H   61.008858   58.461746   29.786736
H   85.572044   63.984531   66.551300
H   58.584492   93.104782   30.077293
H   31.705772   81.538712   43.632225
H   74.809540   13.276791   76.208031
H   47.289543   48.790932   96.286423
H   88.807465   20.819471   89.909340
H   80.325928   60.689705   48.281757
H   75.926125   87.130486   84.996849
H   48.760448   76.847191   34.448181
H   78.854156   33.216385   76.742264
H   93.580292   78.340897   63.545254
H    8.960121   78.422134   59.284542
H   92.088898   19.810745   79.649620
H   79.829628   70.243385   98.741035
H   42.229561   61.463108   59.555958
H   56.932457   41.991619   21.305185
H   15.096538   35.445271   15.595663
H   56.760677   92.073654   49.515278
H   39.479149   54.852444   69.944733
H   22.858618   73.644859   27.053635
H   43.560917   63.250282   51.323242
H   61.434536   92.509399   57.706703
H    3.619184   76.449341   57.575356
H   59.260078   54.017090   46.126350
H   93.228340   81.412186   80.196884
H    5.289747    2.657407   73.003067
H   91.474182   18.631126   48.959526
H   26.931353   90.211632   71.715843
H   30.769405   35.488503   90.691780
H   39.441311   49.458652   96.565102
H   51.968548   41.938923   82.359383
H   65.683952   40.550583   70.534218
H   11.479449   66.594505   89.638550
H   87.765808   92.908859   72.230286
H    4.987635   10.958797   69.925285
H   24.568066   75.518639    1.335355
H   34.271896   72.962494   20.363228
H   31.803436   54.504585   15.051102
H   24.848131   75.152679   71.372101
H   20.710693   20.230150   81.929703
H   23.882030   56.571514   49.528419
H    0.106428   39.849022   44.255383
H   94.811600   53.890804   21.014729
H   23.521793   55.189274   45.290718
H   14.748551   42.140041   13.181793
H   47.621063    9.319179   64.167343
H   19.504303   13.157993   57.260643
H   73.084328   36.804298   32.969460
H   11.751096   25.940266   22.438494
H   39.079521   97.555397   12.050434
H   94.620842   26.415873   41.151161
H   45.838600    5.364921    1.520567
H   11.748201   64.135536   24.103786
H   96.097603   15.596155    5.877920
H   95.165253   61.580421   37.595322
H   35.203693   53.929008   93.783737
H   94.224922   20.695381   71.246910
H    7.029484   53.759254   98.230026
H   50.533695   71.407845   51.400887
H   36.225033   22.986916   59.848587
H    8.259548   80.408447   31.740623
H   72.989822    1.622366   12.426095
H   87.306595    9.230528   45.070366
H   53.970863   82.738449   60.964321
H   94.259369    8.719547   31.833746
H   69.414490   24.970407   82.494736
H   17.347805    6.494237   97.217743
H   20.154367   51.027256   90.392723
H   61.442711   77.346169   58.611332
H   22.398773   37.697659   93.267441
