100
TIME:    2.274, STEP:  2274
H   63.540924   13.483863   97.064102
H   38.014839   28.037016   21.443136
H   18.842825   37.504227   96.642433
H   81.858292   38.962120   15.517080
H   74.803040   55.028645    4.047915
H   92.755379   98.744499    3.947203
H   33.790386   14.888306   68.282616
H   41.154381   85.331848   99.402168
H   97.728676   67.657547   56.947895
H   12.698320   49.034630   96.735741
H   88.733093   57.741810   20.706625
H   69.050110   37.674393   31.062712
H   98.613853   24.127403   99.112297
H   42.486137   98.066750   30.292530
H    8.159920   66.904388   41.463448
H   10.091625   12.836852   44.280045
H   41.241241   32.380257   80.395447
H   49.739014   84.115913   20.709984
H   80.682274   73.751602   83.165497
H   31.253036   57.521236   71.157143
H   29.334244   29.833500   95.523895
H   80.390945   47.102753   25.626144
H   55.382851   76.127922   67.288406
H    7.762319   63.954777   38.187256
H   48.252190    5.825676   53.339813
H   36.232090   59.848736   76.029427
H   65.990273   47.950497   45.091404
H   40.668327   62.582348   41.938381
H   60.616745   55.406929   49.678673
H   88.189095   34.558701   64.165031
H    5.555114   25.967543   29.470432
H    9.338923   89.684624   88.748512
H   30.534752    2.106090    2.656834
H   74.182976   65.324234   75.951279
H   24.246803   87.023071   63.197632
H   70.269913   63.120083   12.822701
H   97.905548   21.257524   87.647705
H   70.000938   17.333416   82.911171
H   49.087814   31.868677   23.944540
H   49.007664   99.298470   16.947374
H   79.838005   34.210041   95.918991
H   27.247040   13.915280    9.636066
H   30.828131   77.136444   65.725609
H   34.148354   50.883827    3.074024
H   59.402012   42.169704   50.703590
H   48.749828    6.289845   92.403603
H   59.495899   48.505890   47.284935
H   56.360859   18.796305    9.280113
H   31.501143   44.116238   53.764748
H   73.579369   65.360451   24.618275
H   43.371128   50.103691   77.393539
H   15.644949   52.729450   24.777836
H   56.051407   35.194153   70.800468
H   24.033123   70.107185   32.160919
H   59.728165   57.856823   19.701857
H   96.411514   10.142084   15.214478
H   40.413036   23.931953   72.263741
H   56.730072   62.136398   54.982986
H   69.621498   34.851421   36.906944
H    8.959013    2.574194   98.932625
H    3.145929   72.819160   37.096622
H   18.203938    6.777391   92.462494
H   28.476406   52.083748   77.552902
H   99.190369   54.164490   65.404823
H   22.580338   79.223877    7.334008
H   61.649818   29.225655   80.641975
H    5.120897   26.981428   76.850784
H   23.285210   47.590027   74.912949
H   70.239433   86.391197   17.610512
H   76.453918   62.520355   96.944733
H   49.823097   40.677040   34.872997
H   86.465393   76.055389   23.112936
H   58.722717    5.826305    3.438949
H   80.146599    5.475678   68.057976
H   71.808983   31.879332   73.782455
H   79.417961   53.315613   42.918003
H   73.420074   29.451399   31.266752
H   38.816982    2.028845   40.024960
H   70.557770   46.839275   43.049576
H   88.004036   85.107483   25.013954
H   55.382549   52.807232   15.900578
H   11.943493   59.078506   96.626564
H   61.678997   45.212830   46.487095
H    6.600129    6.750704   55.725067
H   41.604980    6.643345   27.313538
H   98.952087   92.582100   99.696571
H   19.030050   38.014603   31.976500
H   92.562073   23.232422   72.098824
H    2.873637   67.559502    9.595533
H   65.287308   15.715881    5.508836
H   17.084106   96.221542   81.484451
H   46.542255   66.529594   76.851402
H   31.187645   95.770493   94.837723
H   67.019386   51.168392   80.142220
H   17.275013   46.039055   68.340874
H   81.744644    5.934032   49.993958
H   82.103104   98.180885    6.409529
H   15.214488   35.599426   19.650757
H    0.385506   46.652615   54.567406
H   80.464401   20.293530   78.666901
