100
TIME:    0.648, STEP:   648
H   73.500893   62.596413   98.552750
H   83.244911   39.878773   18.875792
H   90.897980   20.523632   15.731285
H   81.585373    5.951803    4.643498
H   89.366974   24.697578   48.134911
H   17.967964    0.508381   42.919331
H   19.009228    5.092803   41.127216
H   68.954773   44.661724   48.697403
H   37.698921   23.990952   59.298996
H   57.131752   25.689354   33.065224
H   39.979645   92.316360   77.330345
H   31.108074   56.171547   46.803368
H    2.043752   22.502670   60.722168
H   22.996540    3.079334    6.552342
H   88.383644   12.142201   19.623186
H   75.469299   55.059162   79.250473
H   71.968315   24.850266   32.353523
H   14.991591   63.188416   77.081345
H   55.354691    5.536161   97.502991
H   75.108620   91.945801   60.395897
H   25.823303   91.706573   39.655624
H   24.482410   44.955223   64.080696
H   77.092293   89.352074   13.809565
H   58.835312   44.453495   58.949753
H    6.408214   34.783237   41.343796
H   43.687733    8.301744   28.436522
H    6.200609   15.540036   12.824972
H   77.864189   86.685638   88.193253
H   25.261368    7.883842   26.540512
H   25.840193   74.801804   34.902279
H   41.592228   80.152168   58.134514
H    6.672326   34.608238   39.275459
H   16.001724   21.071348   56.173912
H    5.481422   14.337255   44.451561
H   64.664772    9.936385   64.185669
H   28.896500   35.389477   18.414656
H   41.950565   80.804543   59.525158
H   37.207230   47.093960   68.167854
H   21.588184   66.675102   80.019333
H    2.159456   51.520138   89.017448
H   90.958389   78.414833   57.609058
H   73.382622   40.940880   33.244160
H   16.822439   67.385803   48.278374
H   37.979721   23.631079   44.090340
H    0.446682    6.325309   11.558443
H   69.675438   75.385796   85.859428
H   42.922352   60.698307   33.160347
H   56.274021    2.055133    8.672454
H   83.971672   78.781540   18.624617
H   39.480419   40.612370   38.342537
H   43.495182    7.083082   60.249287
H   36.623802    3.609009   31.521996
H   22.321138   25.766052   65.236671
H   61.683498   96.629921   60.410847
H   89.172256   15.311598    5.904787
H   94.377029   11.850927   70.567352
H   37.331795   70.849159   17.617775
H   77.807312   15.691490   96.863602
H   41.382874   66.148132   61.737278
H   16.258011   77.595642   45.178917
H    0.576573   48.435158   63.871262
H   75.912354   21.913864   66.036774
H   18.186043   62.964851   89.102638
H   87.536385   45.319443    9.545904
H   58.044014    9.088991   55.908859
H   61.537666   10.059071   84.500679
H   35.578819   70.763824   98.347031
H   35.604103   54.597153   97.180748
H   89.198082    3.225172   19.590435
H   43.512901   80.736473    0.368118
H    1.454498   51.313511   54.375675
H   20.536779   30.019783    4.064637
H   64.741013   86.253914   45.133472
H   15.927970    8.372406   64.696037
H   93.414963   29.565725   50.520924
H   40.978619   49.103966   52.326717
H   25.788822   70.380974    2.500311
H   62.424545    8.349216   50.227726
H   92.612144   51.604343   24.913887
H   67.746384   73.663948   65.095398
H   23.562710   35.985516   18.718098
H   89.943031   48.459488   32.593018
H   58.796062   18.073008   91.618744
H   94.745697   67.611794    4.242470
H   20.777334    8.350286   84.936195
H   36.378490   32.856060   86.782249
H   10.433187   56.238045   54.442257
H   66.386688   53.413490   89.004280
H   69.130562   58.092400   22.898827
H    9.044273   82.621628   47.377941
H   50.541386    8.422342   47.146313
H   26.232393   44.241570   45.869987
H   26.860405   47.046417   69.045830
H    9.858896   52.539536   70.508873
H   45.388889   91.685303   30.975994
H   47.443741   70.142326   33.979042
H   11.167412    4.867875   99.921692
H    9.244391   21.755005   45.667816
H   77.842888   39.643566   90.772041
H   79.484451   62.060757   35.274643
