200
TIME:    0.253, STEP:   253
H    9.870623   62.431850   15.561869
H   28.080154   33.067951   90.424927
H   17.865213   69.707161   45.988518
H   18.280718   77.125710   44.159748
H   15.072119   84.058731   53.471592
H   89.195679   52.462154   65.164604
H    3.547576   55.294907   49.902988
H    3.179950   89.447754   24.610886
H   87.956421   87.311333   47.402283
H   10.403576   74.716789   95.559685
H   12.646802   94.871895   93.372482
H   30.831558   42.369831   13.361706
H   11.493243   87.439323   60.758873
H    3.789200   53.261784   42.892239
H   18.994221   72.044662   42.946606
H   28.921463   25.430733   54.042568
H   84.818970    8.327353   14.800879
H   36.253475   83.791985   43.288925
H   65.457954   29.231272   42.675205
H   90.097610   79.526146   36.966778
H   58.241089   77.407204   25.244884
H   89.739616   49.311272   70.073723
H   94.615921   62.446938   48.824280
H    8.883586   88.177704   91.545319
H    3.811508   13.226819   44.946476
H   18.650331   62.913170    6.527189
H   99.147484   59.057606   49.604553
H   94.808624   70.665710    0.765478
H   11.616128   56.134590   38.262241
H   92.461967   21.112598   98.176208
H   13.344520   51.992374   16.210707
H   31.689651   63.811020   93.923187
H   26.809189    9.265269   73.337944
H   95.996300   63.592102   38.517525
H   47.364582   89.263840   34.120205
H   32.636608   49.625546   79.625549
H   86.637589   74.148415   86.052528
H   32.271858   45.091591   14.582937
H   52.589119   45.935104   44.720600
H   89.958076   39.635029   63.188568
H   80.508179    4.616529    1.955779
H   13.986376   42.834286   39.445667
H   76.467789   87.483292   50.811001
H   37.252304   63.865299   19.213276
H   29.221169   76.691780   44.833046
H   40.876850   13.500175   42.829262
H   80.219131   25.575283   96.464058
H   89.799332   65.550407   47.180313
H   87.583122   28.258831   61.175705
H   61.652184   17.860170    5.162431
H   77.898987   70.331573   27.353531
H   20.641165   35.921734   63.821186
H   52.527325   94.050201    8.098300
H   22.213114   82.458038   81.895676
H   76.648636   76.095818   90.352921
H    5.139004   72.029800   79.073914
H    5.393384   16.794655   49.515141
H   67.550705   58.881603    5.068806
H   27.906849   74.728592    7.440905
H   42.802620   95.916176   66.753914
H   50.377415   15.122772   41.856686
H   90.170265   16.455679   49.165810
H   71.805458   25.475773   84.446335
H   24.441015   65.170883    3.957754
H   71.557350   76.272873   18.461193
H   38.229755   17.066185   33.096970
H   85.689552   22.887774   86.103706
H   97.268623   91.479485   87.528931
H   16.984898    6.028924   61.815262
H   45.162132   41.856567   50.981899
H   58.459461   76.816978   73.629074
H   31.775137   23.480125   44.673828
H   77.906387   25.887844   99.060448
H    8.288883    8.678948   60.951057
H   79.303329    1.082020   67.001457
H   53.642349   18.617638   62.792522
H   95.372635   30.434156   71.961693
H   26.073736    6.206661   47.523003
H   11.629395   30.272625   34.650532
H   68.080208   90.594444   93.645111
H   43.919849   29.882336    0.940657
H   27.208071   68.356476   87.455345
H   10.948994   13.808900   89.899353
H   24.250137   62.284691   94.275238
H   38.445286   99.461319   57.413784
H   25.033468   85.319473   27.512203
H   36.437862    2.811198    1.801126
H   75.223381   18.060509   11.932521
H   66.085548   72.083000   77.213638
H   23.379017   86.629852   54.722485
H   40.697865   35.005020   80.696663
H   83.964874   88.649521   98.651505
H   47.877251   16.715483   95.359581
H   59.444923   93.966599   69.461624
H   25.454309   56.750351   68.481216
H   68.733711   27.999950   28.450447
H   79.481941   13.829531   98.889107
H    6.537315   28.640718   48.716656
H   36.723335   69.647804   52.927319
H   67.430466   98.138641   27.253580
H   10.446253   80.785828   69.551949
H   91.055717   76.853249   65.792892
H   23.448874   36.694870   30.684519
H   22.500576   67.963486   90.678612
H   25.321507   27.301891   25.509010
H   87.937759   26.136406   43.282139
H   66.274124   30.258200   56.198730
H   64.674629   34.773510   18.238926
H   73.126938   39.925556   99.761208
H    4.784339   27.879133    5.600890
H   47.365582   95.953812    0.804997
H   86.515953   63.672253   90.659241
H   56.868252   80.425514   93.652603
H   63.180138   19.117083   74.618744
H   63.416435   82.509903   26.316843
H   13.507956    5.416998   79.520851
H   32.040447    8.625763   84.331650
H   40.705158   27.636353   33.718651
H   19.356045   58.201687   82.897156
H   71.125702   46.934322   49.827709
H   40.690254   21.845821   87.093842
H   17.728172   27.172070   48.570560
H   32.549812   21.274288   24.414795
H    3.885777   66.850983   17.295923
H   76.527382    8.630225   92.383179
H   48.198620   62.708145   25.280380
H   95.063499   49.250626   70.552704
H   75.144318   87.671928   35.112370
H   92.627701   52.013100   84.594009
H   68.375298   24.087729   66.723083
H   49.133728   84.721527    3.908147
H   81.201019   86.180313    9.633557
H   92.395302   83.227219   97.471855
H    0.283123   13.336270   49.867123
H    5.068294    1.135063   55.819511
H   62.011833    1.610166   83.490082
H   68.914238   86.597649   55.985825
H   91.329231   63.815048   82.992966
H   46.653030   44.515434   71.547012
H   43.454987    8.466434   95.096268
H   51.261250   62.686367   15.329868
H   56.639832   41.405819   46.549942
H   54.587597   57.000267   98.945763
H   57.117393   26.057100   78.339851
H   40.912998   69.335930   49.493641
H   46.416454   62.199734   29.223553
H   45.038719   96.720863   47.188812
H   42.297470   72.934784   68.750389
H   65.532806   64.249557   97.815224
H    9.876376   88.816727   89.510445
H   75.762001   61.530727   51.246056
H   34.334606    6.749999   47.744938
H   76.779671   31.352497    3.008213
H   10.253545    1.441138   75.631271
H   14.128036   54.222359   60.988422
H   63.888016   43.561138   54.460911
H   59.447338   61.273422   80.909714
H   46.230892   36.451317   10.028696
H   11.786822    1.685348    2.122834
H   63.533928   56.413391   78.739960
H   54.083645   83.881241   83.070236
H   42.993740   22.988932   35.431355
H   65.778938   34.003170   37.226646
H   11.751857   20.561562   70.642578
H   58.829712   22.529474    9.952279
H   12.137673   64.025658   62.230759
H   74.675980   97.356697   52.359512
H   23.643570   31.524036   48.550282
H   94.249603   28.127934   36.826237
H   27.066212   10.361610   90.256958
H   79.116638    5.788419   35.974983
H   45.713844   64.964294   57.498035
H   37.924122   76.895645   90.058243
H   71.064445   74.232651   74.545090
H   70.833649   94.938751   98.620163
H    1.308743   47.731071   23.299217
H   35.284195   53.327251   87.451782
H    1.845217    9.213257   65.046432
H   75.269112   21.077356   68.982796
H   85.682129   54.594551   86.568390
H   81.180473   85.655273   41.417042
H   19.489880   30.121914   70.090752
H   65.036682   90.152267    6.327327
H   51.763985   25.244415   77.668541
H   85.691078   87.770531   78.343277
H   99.532585   36.333466   84.019264
H   31.804668    4.301885   99.553177
H   89.796501   67.775215   25.981421
H    6.241907   61.231377   66.691986
H   49.849972   58.202595   65.867264
H   48.441299   30.594242   79.208626
H   47.546345   85.282486   24.458803
H    4.389234   17.833300   58.104008
H   34.876438   64.049950   33.575272
H   84.448486   53.674675   21.773760
H   75.359879   10.415345   29.388266
H    9.547692   85.913887    3.905560
H   28.531681   97.147812   46.600086
H   11.739952   11.648270   77.435661
H    7.872148   34.552322   97.568184
