100
TIME:    8.347, STEP:  8347
H   52.848381   56.561394   91.504105
H   69.952744   57.177143    4.409616
H   23.248194   74.420685   25.358845
H   82.877625   88.753349   82.635567
H   20.402792   41.806110   39.383041
H   98.576538   92.165169    5.377032
H   15.504291   24.967096   43.199436
H   63.828552   10.724076   41.800285
H   48.442680   83.762589   74.674103
H   46.773750   36.235554   34.539528
H   23.837418    2.102415   35.724396
H   37.260002   42.082455   98.780998
H   11.489267   56.752533   95.605438
H   41.787300   79.348091   92.449928
H   81.988655   24.437637   49.492813
H   65.908463   81.669762   40.167267
H   52.890968   34.059826   33.248695
H   79.559601   88.674080   10.178749
H   75.270920   28.520084    3.115469
H   67.630753   28.556345   84.635201
H   68.953911   25.246967   30.692659
H   62.615360   55.164749    8.454086
H   74.297722   26.739080   93.532074
H   43.501411   36.682587   87.153198
H   31.046925   24.201248   98.184425
H    8.250620   80.033920    5.391947
H   42.307922   95.501358   65.588730
H   28.246374   46.049442   42.680313
H   92.668007    6.397387   62.604790
H   21.054104   84.250992   46.950867
H   44.563061   70.546593   48.991005
H   92.792076   21.893848   26.540443
H   58.309338   57.775993   49.760635
H   30.783276    8.769964   20.105310
H   73.221886   27.684959   32.890583
H   98.228516   39.203072   93.184669
H   80.384575   98.848885   66.176292
H   18.995838    6.196217   11.466605
H   92.741661   99.551903   35.425667
H   76.998840   30.764875   94.758972
H   64.793182   42.587326   38.996181
H   96.774094   74.335922    6.090334
H   83.121490   13.558981    4.386627
H   46.359249   52.748650   96.860992
H   32.615654    2.564686   70.386528
H   70.379387   22.119022   17.071901
H    6.949837   78.776131    5.589040
H   56.697079   81.341385   85.042625
H    9.023354   41.151222   11.508047
H    0.987275   57.780117   99.909630
H   42.928448   63.794548   41.417496
H   10.792664   89.199234   26.108177
H   82.010612   70.407471   18.091379
H   83.394196   71.018494    0.147282
H   76.194191   90.095932   71.340775
H    3.991937    3.753489    8.475220
H   25.415749   48.697380   49.856651
H    4.521302   88.615837   98.554466
H   48.585491   91.458656   70.687729
H    8.203776   69.367249   26.202049
H   86.235489   90.397461   63.596973
H    2.666585   50.249374   17.678837
H   40.738522   37.699127   61.091614
H   16.212917   87.232681    0.515910
H   63.632042   94.182678   72.888611
H   88.579628   27.319115   39.724140
H   17.873075   36.939838   70.055222
H    3.781286   94.910637   65.237473
H   72.916534   50.024147   36.723701
H   99.547966   67.890945   84.139755
H   56.976192   27.470829   62.025551
H   85.912094   74.446678   67.876694
H   62.751190    5.435419   47.734104
H   46.457050   21.138607    7.203637
H   64.554489   40.605724   34.176701
H   22.984545   42.537476   34.282402
H   24.868671    3.345602   38.777290
H   24.135115    4.934338   75.417114
H   61.780342   29.000950   10.808781
H   90.181023   54.318993    1.819785
H   74.221581   15.635903   78.871719
H   67.647415   98.602051   88.694023
H   45.841110   46.709507   24.869038
H   24.410011   26.430269    1.048529
H   45.901062   26.765919   38.604897
H   59.188328   15.652278   21.424393
H   24.632113   96.457253   21.560478
H   90.271751   37.138794    9.032600
H   28.909592   29.424196   59.923103
H   28.351603   65.860001   22.602636
H   65.616325   24.145191    9.735496
H   95.892372   23.253448   92.572090
H   20.512135   77.969505   64.490906
H   53.970352   19.575672   89.624214
H   12.275974    2.055407    7.892163
H   83.349548   66.118042   36.315666
H    0.057119   46.695839   57.145149
H   22.165674   99.470192   11.314520
H   11.081153   72.846565   45.889210
H   57.674297   64.433060   93.646759
