100
TIME:    2.231, STEP:  2231
H   66.448883   17.427139   97.103470
H   39.210960   25.705629   18.730703
H   18.103697   34.410583   97.146996
H   81.851074   40.733665   17.874073
H   75.188187   51.582005    5.213772
H   93.422005   98.791084   99.688713
H   36.043858   11.984694   64.919960
H   44.534096   81.611603    3.350300
H   98.785698   71.791809   59.654751
H   13.873281   48.417213   95.052116
H   92.732849   56.011600   24.848597
H   70.691086   35.519012   34.123497
H    1.349143   26.728951    3.386134
H   44.615273   98.199287   27.020092
H    7.636850   70.745361   43.530579
H   11.820686   16.597847   47.849380
H   44.698380   29.536598   76.480331
H   48.820107   86.206993   22.200871
H   80.012367   71.947906   80.899887
H   32.411430   58.434238   68.229500
H   31.885925   34.114407   96.691147
H   76.268494   47.045670   29.287994
H   55.956963   76.477638   68.518646
H   11.757484   63.439060   41.380959
H   49.790154    9.235901   53.022575
H   36.429256   61.129826   80.060020
H   69.698051   49.738117   44.238110
H   44.296387   60.575253   40.516880
H   59.681763   51.505592   51.711357
H   86.540245   35.622940   60.746609
H    3.863411   22.111315   32.872906
H    6.623927   90.872871   92.729240
H   27.505901    5.252100   98.783051
H   72.366158   69.264938   77.762848
H   25.315800   90.273529   60.579353
H   66.531296   59.742008   12.970494
H   93.781128   22.832396   84.259460
H   71.778389   18.120441   79.876579
H   50.902992   32.805603   28.111444
H   53.057613    3.324019   13.564215
H   82.776802   32.734737   94.905930
H   31.111633   11.985362    7.615938
H   30.457747   76.878586   62.619644
H   36.894249   50.163071   98.869675
H   63.131771   43.866123   47.024025
H   49.304585    5.469685   92.229073
H   59.159634   46.167450   46.871902
H   56.358562   18.353582    6.619535
H   30.244329   47.677372   55.480194
H   72.677849   64.706291   27.625637
H   43.374409   54.255013   76.940155
H   13.555346   56.719692   27.600826
H   55.159401   34.944824   73.297691
H   25.028797   70.808586   30.263548
H   63.151512   54.087040   19.337049
H   96.357712   10.187275   16.678299
H   37.687153   25.172691   68.174095
H   59.931976   66.197174   56.090530
H   66.229973   33.034603   40.208252
H   11.796520   99.269028    0.155636
H    0.433408   74.819038   40.449108
H   19.729927    7.177711   94.407913
H   25.559753   55.015984   80.502853
H   96.237793   53.930580   66.572075
H   20.873585   82.658051    3.329495
H   64.291389   31.363319   78.099480
H    8.570982   25.494806   74.774796
H   26.255501   45.130859   72.857300
H   68.096519   89.480904   20.307526
H   75.582581   60.357430   97.035278
H   51.188499   43.602715   35.389042
H   90.011108   77.482468   19.964670
H   61.526352    7.953144    4.541561
H   81.092735    8.196849   70.613594
H   69.735619   31.818148   70.522812
H   78.401619   50.559547   45.811199
H   69.516113   33.178421   30.506136
H   36.796764    4.840543   37.650105
H   68.495560   46.965580   42.569618
H   90.112831   87.449203   28.718452
H   54.541065   52.362377   13.330606
H    8.717066   58.797684    0.222156
H   58.958363   44.495026   42.391544
H    3.642017    3.071139   59.652649
H   43.698685    9.333059   31.481918
H   99.941528   91.002800   96.710533
H   16.158178   41.141052   29.926100
H   91.869858   26.675125   72.546303
H    1.981180   69.953712    9.947300
H   69.088913   17.485130    3.971734
H   15.324371   93.899506   80.576370
H   43.360363   63.296124   76.031898
H   28.428791   94.481857   91.511154
H   62.863384   48.559956   77.242790
H   18.018570   49.890854   67.352745
H   78.193024    7.632010   52.214951
H   85.516281   95.713188    8.882530
H   15.056607   35.233307   20.338871
H    2.433855   46.467258   58.169220
H   77.793961   21.397957   82.808380
