100
TIME:    7.928, STEP:  7928
H   81.184074   94.985924   91.887711
H   81.524857   34.470867   77.991653
H   16.045992   44.275650   30.276993
H   82.807297    6.016178    5.601299
H   24.157335    8.221410   50.744171
H    5.074170   92.619102   63.883423
H   37.463718   96.673370   10.433094
H   96.761124   74.474083   80.271416
H   58.742500   24.048313    1.047086
H   58.217995   30.219332   18.132629
H   62.811783   85.242996   76.083893
H   53.253174   21.080029   28.604927
H   38.207558   82.114365   37.244175
H   62.533989   80.639565   60.565533
H   76.899483   61.864792   69.642609
H   82.755157   18.317261   74.947540
H   86.584358    6.347238   95.105469
H   70.602402    9.062529   24.702709
H   68.743225   10.941342   81.039368
H   78.921555   37.453426   56.107704
H   93.817970   66.960693   42.063564
H   22.445421   54.608521   44.135834
H   79.891975   30.145182    5.520133
H   82.432709   31.670137   18.271290
H   46.033028   57.431114   95.090004
H   10.226192   92.386032   44.822578
H   78.439133   12.918702   57.274685
H   63.599030   26.491934   28.829306
H   83.557365   68.382187   82.411644
H    4.988459   94.621140   13.641964
H   28.071581   32.975029   82.140953
H   66.336052   33.469158   65.329399
H   28.794230   88.432503   12.013806
H   13.078395   47.168770   37.756500
H   83.649574   59.409172    7.397032
H   61.805134    6.383634   94.501717
H   40.197353   14.194555   33.160610
H   36.313652   13.864340   81.898109
H   10.427457    8.680223   76.030357
H   16.464809   69.991241   61.794220
H   93.429367   28.211691   29.124723
H   32.085381   72.692810   84.698448
H   79.515594   11.045563   74.120461
H   73.113174   45.713524   55.892506
H   68.959633   19.094975   34.530792
H   75.788231   14.128829   15.369650
H    3.674402   55.989937    1.565052
H   56.671505   77.025818   59.117260
H   96.775642   75.852669   28.222294
H   92.190186   51.402668   29.206261
H   42.957218    4.245958   36.999634
H   90.429001   28.078917   53.613068
H   73.321938   67.977966   42.425697
H   93.099426   77.853073   81.657486
H    9.555489   53.377525   67.779633
H    3.470073    4.194237   22.738968
H   98.853638   60.787361   10.006265
H   35.720139   28.185858    9.347342
H   15.538635   73.755241    2.853233
H   35.852402   37.160862   38.119408
H   59.805035    9.883430   96.267372
H   17.537727   54.149368   36.637352
H   12.292048   66.290558   89.823700
H   87.441460   84.950226   11.892474
H   46.999527   27.647795   33.869492
H   14.318726   48.148918   14.949555
H   51.490417   22.454464   49.826397
H   32.724693   70.948051   45.206848
H   52.033752   80.130821   63.003906
H   91.038307   46.846371   85.028442
H   70.282616   55.981262   67.050789
H   20.416153   88.358788   37.165440
H   90.070328   26.161280   58.478268
H   55.679577   47.656025   32.098083
H   44.370422   39.988758    2.408067
H   13.078156   15.682835   62.474243
H   86.814171   39.612297   31.345064
H    4.451730   32.330196   52.274509
H   41.688980   30.231686    6.132784
H   10.728974   77.143547   37.916847
H   66.018806   11.301156   53.828644
H   36.207336   95.884842   23.748055
H   19.337900   39.702305   84.965714
H   95.583382   90.575073   39.316662
H   66.302505   52.975796   79.222374
H   68.831223    0.261685   92.327469
H   96.647972   26.922295    1.580897
H   83.533073   70.668518   13.376938
H   20.212925   52.753654   63.349983
H   65.398071   83.096695    7.624858
H   48.469135    1.521538    0.886675
H   64.890617   91.741074   84.586693
H   93.653687   65.400017   32.088989
H   13.476816   94.155479   61.371639
H   19.521332   39.587990   98.264313
H   48.741898   82.664246   57.957436
H   33.314598   22.650761   81.241997
H   22.974443   78.736290   19.726679
H   31.041252   71.037224   80.984413
H   31.649828   75.186813   34.010899
