100
TIME:    1.764, STEP:  1764
H   98.030670   60.253525   97.531021
H   52.201393    0.385554   89.272881
H   10.076422    0.813812    2.628024
H   81.772690   59.973473   43.472721
H   79.371063   14.149892   17.875393
H    0.662068   99.297020   53.441105
H   60.517605   80.451668   28.399956
H   81.239372   41.210018   46.229866
H   10.265511   16.692123   89.049431
H   26.633905   41.711784   76.767174
H   36.172043   37.220722   69.831299
H   88.512848   12.110731   67.365608
H   31.054707   54.982964   49.801285
H   67.738670   99.638710   91.480766
H    1.956128   12.459763   65.980270
H   30.598389   57.444672   86.614029
H   82.244507   98.653122   33.962875
H   38.840347    8.917324   38.391891
H   72.736870   52.356812   56.295429
H   44.992126   68.351425   36.433937
H   59.598373   80.605774    9.366707
H   31.491764   46.428215   69.054482
H   62.192085   80.275719   81.879623
H   55.146812   57.838139   76.064819
H   66.493156   46.272530   49.577225
H   38.570576   75.045883   23.832911
H    9.966713   69.151566   34.970936
H   83.700577   38.777264   25.080366
H   49.527420    9.136081   73.787254
H   68.632973   47.181076   23.621307
H   85.492500   80.231750   69.824585
H   77.137268    3.776882   35.961739
H   94.611038   39.419212   56.712006
H   52.634666   12.062590   97.437332
H   36.924843   25.575417   32.143631
H   25.927906   23.054979   14.575593
H   48.989204   39.935402   47.461552
H   91.082329   26.667904   46.921352
H   71.418930   42.851799   73.056549
H   97.044624   47.043789   76.822647
H   14.691864   16.710554   83.903610
H   73.082916   91.026527   85.675858
H   26.435202   74.078125   28.889248
H   66.715950   42.335320   53.208042
H    3.641997   62.290020    7.060087
H   55.329494   96.562386   90.333595
H   54.706287   20.898142   42.696480
H   56.333622   13.545412   77.724266
H   16.594755   86.355003   74.108810
H   62.886517   57.598606   60.286991
H   43.410038   99.340294   72.016190
H   90.860558    0.052617   58.259815
H   45.471802   32.237000    0.418724
H   35.842281   78.426125    9.657358
H    0.327213   13.146265   15.374933
H   95.773392   10.678068   32.576080
H    8.082550   38.647682   23.758642
H   94.706146   10.299378   68.118973
H   29.399780   13.301545   76.060791
H   42.612400   63.376034   13.437390
H   70.975113   96.538643   76.859917
H   36.303345   11.525373   15.538205
H   93.883469   86.861427   12.541018
H   64.171448   51.390213   79.248970
H    2.337339   19.956017   59.839931
H   92.980080   54.579353   50.486797
H   46.039841    9.349769   52.228588
H   58.514244   18.422253   50.532001
H   44.820541   23.036530   49.598351
H   66.119446   36.867050   98.018646
H   66.017403   75.378090   40.991032
H   28.517542   92.981201   85.773705
H   91.975128   31.051601   16.516560
H   91.368217   37.750130   98.368797
H   47.220573   31.153662   35.121563
H   67.363670   20.628073   77.234154
H   27.114386   73.655991   22.245489
H   14.856257   35.376854   11.858216
H   46.106812   48.334812   37.359520
H   13.015676   12.882307   68.951027
H   45.402157   47.531048   85.419090
H   73.678574   55.747818   39.273270
H   29.411007   36.699341   97.912262
H   71.518318   63.109356    2.308022
H   66.437286   38.545296   76.752472
H   10.690533   73.850868   64.280769
H   84.968285   75.095749    7.657477
H   84.352081   64.064484   77.406136
H   92.289742   95.955956   13.767649
H   10.376766   36.699997   87.276436
H   96.212654   68.681107   70.714188
H    8.805237   28.175146   67.131706
H   98.466240   80.486679   55.383072
H   17.724659   20.231863   45.755707
H   26.093945   91.720825   56.621208
H   39.620773   26.072344   76.335968
H   22.584270   68.912849   35.740112
H   13.341949   31.257080   27.812111
H   24.679535   44.454205   97.289627
H   48.791733   33.392757   27.787621
