100
TIME:    9.759, STEP:  9759
H   57.360504   27.074768   90.211380
H   30.955696   33.690166   93.440849
H   47.519100   76.005623    8.783865
H   83.114624   30.580610    5.237812
H    7.750250   54.983871    1.100155
H   76.686401   90.635445   45.212502
H   41.500629   20.312204   53.619686
H   52.848145   32.879360   12.154179
H   13.733025   48.003937   85.793373
H    8.204142   56.509785   89.825050
H   92.496552   58.915604   99.710915
H   83.367485   12.858606   98.273277
H   21.450745   71.288551   55.284607
H   71.874298   74.995918   99.903282
H   99.138802   98.310852   81.589378
H    9.134136   58.171127   22.958630
H   39.346352   27.452934   61.788620
H    9.757621   19.965767   61.229691
H   97.268784   87.754868   77.508911
H   29.591305   98.570282   80.770714
H   85.163330   84.678841   92.366592
H   97.985184   57.039200   88.209305
H   55.445488   15.260590   53.134430
H   12.305691   53.574188   82.286438
H   80.546982   12.222435    8.608150
H    1.590151   38.408188   72.517174
H   20.549129   36.806667   93.597763
H    9.105986   11.956838   89.352592
H   23.371349   34.504490   95.859543
H   75.196632   49.304337   59.200996
H    0.132456   97.164612   37.278076
H   81.946609   82.880325   95.824593
H   57.769386   54.467331   76.964745
H   90.442627   79.368614   60.620110
H   38.081322   20.776711   18.797979
H   20.970396   49.801395   88.746315
H   15.814420   47.139900   77.436417
H   60.632404   80.361229   11.107360
H   33.141476   68.785057   98.593254
H   44.004551   98.577316    5.852044
H   68.292969   91.038193   72.262291
H   77.778297   79.875900   78.168449
H   95.273102   22.030937    6.376106
H   56.206867   76.453712   34.916309
H   10.121344   46.843571   91.209885
H   52.158974   49.048809   22.808367
H   17.989765   55.569553   19.148333
H   56.783260   95.884537   72.408798
H   50.293587   24.210125   55.185051
H   30.624350   79.279320    1.183076
H   45.621616   27.684868   52.017670
H   79.416260   58.177101   33.418678
H   11.293869   78.594727   36.084801
H   50.692650   47.978958   62.453865
H   63.768806   13.836637   83.341568
H    5.750582    2.268203   60.407394
H   14.930906    7.954479   84.149498
H   99.381058   55.270073   62.185814
H   59.952236   51.124413   62.287830
H   15.026228   77.897751   86.041420
H   75.309540   24.732897   53.514210
H   52.551933   37.106674   53.792839
H   36.613194   41.369141   64.277023
H   13.172674   94.924393   62.185982
H   19.673649   81.407967    4.381439
H    1.839334   57.124779   23.213099
H    4.585228   85.755768   38.227306
H    6.244847   75.664864   32.739243
H   43.289978   48.566833   48.166134
H   28.225189   38.813145   81.144943
H   12.131577   31.394283   45.090858
H   69.636314   27.563866   71.375519
H   70.687302   35.590099   11.527042
H   15.377796   31.773502   23.306719
H   32.570824   42.684856   41.235462
H   56.369156   33.032810   39.272385
H   53.108345   81.134201   63.823830
H   90.467598   12.612251   53.404259
H   29.493040   24.853458   26.568361
H   20.934937   77.400063   80.174721
H    1.864178   30.243692   63.265572
H   73.602562    7.766835   70.564995
H   35.151443   70.323280   59.341747
H   21.553097   47.258255   72.082878
H   77.149658   38.435661    1.728771
H   26.687077   67.520424   19.477970
H   18.936464   93.793037   88.889885
H   12.979458   24.152555   94.396561
H   58.211918   50.806496   48.374763
H    3.511686    7.763145   73.075699
H   23.401815    0.388721   39.554344
H    0.366074   29.449163   19.474817
H   11.024184   20.332899   73.683037
H   87.642128    5.028139   89.119682
H   87.862732   75.578316   40.336220
H   99.974945   10.360340   63.383865
H   87.979057   27.726814   75.938904
H   19.440180   69.334427   82.962914
H   43.816673   78.943916   27.618977
H   45.379807   28.203762   57.625301
