100
TIME:    0.371, STEP:   371
H   92.233559   87.998787   98.806351
H   90.950157   24.859753    1.403101
H   86.138733    0.595480   18.983719
H   81.538879   17.364908   19.827143
H   91.848038    2.494806   55.645729
H   22.263332    0.809863   15.486660
H   33.526722   86.389229   19.465456
H   90.726425   20.698536   74.130638
H   44.508110   50.623291   76.734642
H   64.701744   21.713100   22.217440
H   65.745514   81.170593    4.013233
H   41.681126   42.286888   66.520851
H   19.663414   39.261475   88.254539
H   36.712132    3.933389   85.473228
H   85.014977   36.883865   32.938374
H   86.606613   79.287300    2.243616
H   94.238716    6.531836    7.133754
H    9.072648   76.658859   86.684372
H   51.041359   93.916122   82.908249
H   82.606758   97.753265   41.498390
H   42.260880   19.282883   47.172783
H   97.921608   44.589615   87.665596
H   80.790642   91.604897   21.735508
H   84.571594   41.131321   79.521545
H   16.314489   56.751431   39.298111
H   44.957851   16.554909   54.399078
H   30.086660   27.054604    7.328201
H    1.237655   73.756210   79.038254
H   19.238342   82.752159   39.634338
H   15.219552   81.657486   12.882168
H   30.695833   55.311943   80.054100
H   89.182617   42.260651   64.918755
H   96.490051   41.337730   31.219564
H   93.777489   39.722687   56.121437
H   71.550041   30.875534   47.319061
H    4.811795   13.629614   19.367773
H   15.383080   90.948586   37.698559
H   48.655205   52.163868   48.621098
H   34.041225   72.588234    6.567579
H   28.249714   77.451866   67.224663
H    9.888607   68.909019   51.080944
H   98.277794   28.508089   20.230200
H   14.436822   65.724716   28.271164
H   55.668396   18.989122   17.006329
H   24.474308   17.253990   87.854675
H   73.213173   70.178520   84.773170
H   39.997486   45.754864   30.793402
H   56.259228   99.202820   91.533340
H   75.873344    1.723837   29.674227
H   33.670841   36.396252   57.715546
H   43.516315   33.826302   57.328648
H   23.162504   29.312580   49.707306
H   16.574961   24.159912   81.323433
H   68.096146    1.148663   48.187275
H   11.223701   91.028549    3.554247
H   94.030441   12.142040   79.997086
H   19.772034   78.841820   91.272545
H   98.433533   41.850441    3.998550
H   19.537254   54.444443   83.001953
H   34.536308   56.305069   53.057457
H   83.103439   61.315979   85.469604
H   85.743622   24.492142   78.568893
H   99.396965   81.853905    8.105950
H   68.516304   43.812630   17.067289
H   47.048294   31.212681   30.111368
H   78.554298   23.829609   68.122276
H   57.802727   61.186779   84.973801
H   54.738304   38.755539   83.938545
H   75.393730   23.128624   36.964222
H   37.901978   66.805321    0.950608
H   10.251093   70.161720   57.697849
H   43.376202   39.212822   83.784767
H   82.801636   99.956825   52.236416
H   22.024956   25.901754   81.158974
H   80.058640   29.171587   29.522629
H   34.429371   31.349817   70.965073
H    0.638918   94.388542   97.598206
H   49.410583   26.461617   34.929241
H   79.336128   52.415257   21.825237
H   81.330948   88.748985   88.959259
H   18.141987   33.119823    2.162804
H   69.160423   46.650467   55.757362
H   41.270115   13.449780   65.235779
H   75.691803   43.908543   29.543404
H   34.265564   25.677345   11.788104
H   42.754444   22.681286   67.546608
H   91.932961   76.378197   41.233868
H   61.927536   75.590904   91.882652
H   63.382271   73.515572   25.165386
H   33.534676   94.020996   37.474819
H   39.205418   93.464828   41.296581
H    5.736964   23.408678   40.592972
H    9.088253   38.747322   47.616539
H   83.086433   35.736351   51.832531
H   50.177723   16.497272   24.611664
H   24.564697   81.080986   48.286369
H   33.153740   88.971443   15.852495
H    8.227345   19.396515   50.099495
H   91.038597   38.449528   13.975353
H   62.281841   69.174843   61.953476
