100
TIME:    8.880, STEP:  8880
H   16.804073    7.683300   91.016129
H   55.232132   86.058151   38.017353
H   32.409946   12.766818   19.102585
H   82.967087   66.794426   53.420593
H   15.626726   84.528412   24.931812
H   90.313477   91.587730   58.162819
H   87.569206   60.959396   84.880730
H   21.935806   56.833866   92.861275
H   35.340523   32.516968   41.122974
H   32.215797   43.888645   55.408638
H   74.259064   23.547707   84.382683
H   16.915466   68.799141   60.840858
H   77.501480   24.493248   42.637276
H   15.397183   77.705238   33.012157
H   88.462471   76.827461   23.861870
H   44.478180   35.051781   95.922913
H   10.030261   69.312645   81.769783
H   90.956741   62.738152   91.702225
H   83.574646   50.881588   31.194508
H   53.271030   17.237333   20.924250
H   37.324928   72.185822   16.226202
H   13.714593   55.872314   63.064255
H   67.181404   22.406260   78.282822
H   93.977692   43.058807   47.568516
H   11.985145   81.932053    2.119743
H    5.736526   64.321091   55.235157
H   96.346367   73.347244   76.161545
H   83.272888   70.928085   60.300316
H    4.257707   54.754940   37.408958
H   41.491081   71.059372   89.323456
H   65.541664   18.342800    6.821739
H   26.445789    7.168589   77.198006
H   95.851578   18.779263   97.777481
H   53.303482   59.923676   97.651955
H   59.957069   87.329414   65.320496
H   44.560444   80.951843   91.509285
H   31.506870   79.329842    8.174588
H   96.966179   96.442787   49.077362
H   70.245964   87.938072   83.774643
H   26.797037   80.867744   36.694389
H   28.365973   60.874229   51.553432
H   51.855896   76.426086   33.300968
H   87.708466   16.756481   42.884182
H   12.326984   61.698944   48.973042
H   86.381470   81.540581   15.997003
H   63.499222   32.283215   19.237295
H   11.117063    7.762484   10.707481
H   56.729610   86.831116   18.021214
H   24.601990   97.009377   90.246948
H   12.175142   65.893669   62.644375
H   42.891850   12.336693   47.037354
H   36.697521   39.740864   91.119148
H   93.063271   73.497986   87.136246
H   71.048401   62.323601   23.665707
H   33.756538   36.805527   75.870819
H    4.655788    3.192825   90.330627
H   59.204025   33.318001    0.549240
H   64.832703   38.281105   84.826073
H   90.624626   13.980187   29.767645
H   73.029549   10.333783   11.042259
H   19.857763   65.608276   22.041744
H   83.749352   45.288284   93.562553
H   76.924561    1.327338   24.542206
H   52.814312   90.136139   86.047287
H   84.785873   51.613712   22.524580
H   55.836433    0.822591   71.239265
H   75.109329   55.365002   95.787827
H   66.963394   25.394466   90.717957
H   99.478699   11.726158    3.293656
H   10.373183   94.664566   83.009277
H   40.047489   91.204170   55.633064
H   42.020683   56.749413    6.946843
H   27.999161   79.068962   34.066708
H   34.725292   87.404579   75.534340
H   90.230164   41.390553   74.589249
H   35.586525   76.698357   98.418594
H   73.276199   57.214733   48.231827
H   49.172993   70.084709    4.857749
H   87.341805   27.435360   16.757135
H   64.041771   25.283945   55.901268
H   84.656136   21.150034   10.728736
H    7.644704    2.060665   44.102959
H   79.554314   55.623203   75.629814
H   61.077766   72.040016   52.365833
H   19.948868   93.423691   86.937317
H   46.919796   35.230621   58.437378
H   60.229969   57.703819   46.975899
H   98.843864   94.487953    3.506105
H   39.970951   99.748619   55.563850
H   81.227829   43.929886   41.655037
H   87.428856   52.923580   20.991478
H   35.328976   63.340240    2.729109
H   54.678593   93.958855    5.708613
H    5.483300   51.912220   25.562632
H    3.059599   54.314098   20.139002
H   27.373215   45.070007    8.785416
H   57.749596   77.283806   26.491753
H   21.136858   25.843182    0.613611
H   85.690422   75.148186    1.243481
H   90.782700   50.757404   42.301823
