100
TIME:    6.475, STEP:  6475
H   79.444656   28.231749   93.217972
H   21.651615   55.735981   86.375099
H   91.065933   39.740959   47.337032
H   82.563416   65.880341   85.246216
H   37.175064   91.757233   90.142075
H   27.609669   94.193245   19.986862
H   13.615970   98.559715   96.806511
H   10.964066   48.771091   13.680289
H   94.460014   63.748535   92.508385
H   97.904121    9.355518   61.240177
H   97.966309   26.778021   16.045074
H    8.706757   48.248829   32.030922
H   30.883621   70.034401   81.632988
H   34.477074   85.118111   49.991199
H   59.251350   91.653923   39.519550
H   41.178696   45.401894   95.559082
H    3.426060   10.242528   62.833138
H   39.532070   79.765640   75.067421
H   46.115376   49.988846    4.491386
H   18.070465   68.305946   57.180717
H   80.041046   11.610119   81.499641
H   83.144897   52.679642   67.872223
H   99.291618   41.961464   47.093628
H   17.436752   14.288057   26.183302
H   98.001900   72.660706   84.359230
H   17.029619   35.242409   81.536980
H    3.732016   73.320328   28.441275
H   86.200027   58.670815   80.802628
H   51.963661   36.554333   51.095032
H   49.272984   30.583763   98.132980
H   70.889061    2.681863   97.097618
H   74.592743   73.612442   99.840904
H   26.447044   94.740974   81.116089
H   51.686241   80.327652   98.970688
H   19.811447   69.421700   18.994753
H   35.497967   92.578209   99.068947
H    0.836182   67.406860   18.669836
H   96.369835   40.458256   79.363945
H   71.761932   40.336357   16.836710
H   53.320248    6.015059   47.474392
H   92.731689   78.355156   94.893898
H   54.536270   66.994858   10.520600
H   67.011139    2.329448   69.169182
H   65.891632   21.325399   13.827216
H   94.997658   76.420547   10.193309
H   94.544914   86.417557    9.466616
H   92.320602   76.970291   87.618477
H   56.585217   62.060379   69.214233
H   54.298500   96.191139   86.183823
H   61.683704   29.286394   30.799536
H   43.056988   44.524307   21.683193
H   19.808357   62.908722   48.992805
H   43.183865   59.552979   26.810389
H   26.746216    1.554454   17.540146
H   25.246067   26.042709   55.422680
H    1.660364    5.722651   72.202515
H    6.739660    2.712896   71.813805
H   43.913483   65.403679   46.774887
H    0.947210   12.354524   14.397367
H   31.735603   25.478001   79.446190
H   68.148582   77.453384    9.554693
H   69.107521   67.673691    2.379380
H   13.647772   65.440712   89.460266
H   87.666428   77.035172   51.345516
H   89.326553   43.696926   98.557137
H    3.577958   20.381493   29.036375
H   68.067093   72.218079   79.674881
H   33.093346   87.849037   75.745041
H   79.615730   84.534134   54.133045
H   61.564354   73.816826   88.098633
H   16.421719   54.842285   84.477211
H   40.073704   36.632462   30.690636
H   84.808777   98.027710   95.727356
H   87.669472   39.616489   18.430979
H   74.355705   37.872562   92.246597
H   78.731834   22.559128   60.242889
H   54.851162   65.374046    5.576665
H   36.187603   27.335508   72.030815
H   72.011574   34.499607   89.922585
H   81.985184   56.295906   63.094139
H   37.578354   96.268509   66.984634
H   27.176115   86.462158   45.305714
H   27.433159   15.402936   46.590157
H   95.619576   66.238914   72.025230
H   37.050941   43.870735   20.073624
H    2.265783   46.892456   91.426743
H   99.605324   32.567543   32.296440
H   60.164818   86.937927   28.442146
H   90.056992   33.654030   75.233650
H   93.861435   42.877720   55.680962
H   89.006310   23.063618   70.201950
H   57.383327   82.461426   56.897934
H    0.513587   21.801060   19.726267
H   73.050209    6.003817   63.398300
H   44.643852   69.739334   64.874756
H   28.730072   40.040375   33.006927
H   48.647087   39.266525   64.806168
H   25.779078    6.842572   48.894989
H    0.259173   64.762825    2.687195
H   41.397800   12.476326   73.983742
