100
TIME:    3.174, STEP:  3174
H    2.678021   30.949272   96.240128
H   12.979536   76.834824   78.214981
H   34.312950    2.254790   86.081825
H   82.009354    1.880473   66.186951
H   66.741821   27.167599   79.644821
H   78.802742   97.769463   93.077568
H   86.620872   75.661949   38.663872
H   70.416153   63.192165   16.767323
H   75.604958   81.126175    0.294225
H   88.104454   61.957298   31.980455
H    5.017273   93.955490   34.013973
H   34.698242   82.787003   67.000267
H   41.364067   69.675934    9.659557
H   97.923454   95.292702   98.781929
H   19.108482   86.513046   98.200233
H   73.904602   34.119537   69.571632
H   68.872932   91.906555   62.330090
H   68.970177   40.349129   89.506531
H   94.703575   11.505290   30.580919
H    7.007584   38.411892   32.433281
H   75.927063   40.235939   71.093048
H   66.674820   48.297516   48.982849
H   43.366554   68.808281   41.539200
H   24.142548   74.748840   71.345589
H   16.063950   34.445412   59.980507
H   32.105350   33.035229   91.672340
H   88.381332   10.536902   62.951054
H   64.727928    4.591278   71.688957
H   80.186142   37.061783    7.136108
H   22.698391   12.283633   35.712036
H   40.972225    6.674691   58.262169
H   66.165504   64.814323    5.430973
H   93.929413   36.256874   83.735939
H   12.209964   82.844643   38.034714
H    1.873348   18.990234   18.003334
H   48.521420   33.818996    9.729363
H   84.226723   88.296371   58.564083
H   32.804245    0.861148   46.421192
H   11.095941   12.261515   36.727707
H   64.237106   15.043748   87.758095
H   18.331343   65.088730   17.123762
H   46.360130   54.310547   51.918137
H   38.580357   82.533478   30.735310
H   76.677917   65.968536   91.070885
H   81.334236    6.662813   27.718981
H   37.138653   23.455982   96.056557
H   66.531540   97.449982   55.929802
H   56.408924   28.062586   64.967064
H   57.806534   69.577995   17.861406
H   92.448387   79.052162   61.669476
H   43.302464   63.214325   86.882980
H   59.382984   69.216522   65.696068
H   74.717354   40.412659   18.527924
H    3.193432   55.422691   71.876495
H   88.074356   36.745476   27.343904
H   97.537613    9.196066   84.576355
H   97.470436   97.962029   57.861275
H   89.713860   77.142365   31.801804
H   40.603012   72.877853   67.814598
H   49.566719   71.752960   73.334480
H   59.919136   30.966671   66.924698
H   86.263145   98.398941   51.742348
H   89.543236   90.694756   15.819778
H   60.993553   59.060272   40.967503
H   58.305599    7.341392   91.149590
H    6.361396   84.483955   33.855453
H   32.913033   58.093891   20.303194
H   61.115883   99.060974   17.938154
H   15.092968   21.722923   61.166225
H   94.691223    7.784992   95.049591
H   21.243618   79.440620   24.074585
H   12.256711   46.186310   89.007233
H    0.040210   61.305523   80.366692
H   60.342472   48.523018   14.568291
H   15.203334   33.163036   42.009068
H    0.690422   10.995878   82.359283
H   55.134243   51.446053   47.183353
H   81.100616   43.180759   89.727676
H   13.718551   44.195690   53.095200
H   43.866463   36.090816   47.478226
H   72.991501   62.118145   69.691360
H   79.473404   64.956192   21.369730
H   18.617704   60.236633   32.207615
H   68.515213   83.764862   73.520386
H   97.781265   50.349834   40.068657
H   78.242859   25.639919   62.195400
H   79.139000   72.577263   74.891846
H    7.048624   51.176208   62.733910
H   21.552876   17.449110    2.232305
H   85.714355   78.689041   37.680511
H   53.915771   44.818134    0.490807
H   13.135944   34.208458   94.003807
H   88.914246   22.752409   64.454735
H   54.007641    5.758742   40.825035
H    1.712536   65.423035   89.022636
H   56.080978   70.393562    3.507595
H   10.665402   49.829861   54.650047
H   18.517660   43.262390    5.249649
H   57.511375   50.532162   79.181297
H   36.360035   97.185005   91.977951
