100
TIME:    4.298, STEP:  4298
H   26.665737   27.872742   95.211075
H   81.775459   37.766388   49.109039
H   53.633415   83.119621   72.892799
H   82.198013   55.572929    4.574291
H   56.674255   17.261156   49.167709
H   61.376156   96.551750    4.391018
H   27.712574   51.560070   26.562204
H   82.071968   60.432537   13.565279
H   47.974892   73.058182   29.542795
H   57.387230   78.096275   75.995850
H    0.465545   39.181751   25.744705
H   91.796989   39.127037   86.993050
H   69.802872    1.680986   97.951172
H   42.268852   91.828224   84.319748
H   32.781776   86.112915   44.171818
H   28.711723   35.810356   76.269470
H   78.487495   66.248672   64.652245
H   92.981407   85.688805   50.536770
H   12.211166   58.661629   89.798065
H   76.721123   14.543306    8.960398
H    9.227295   28.337841   40.588219
H   74.433792   49.789642   53.263870
H   28.359535   59.666862    9.378726
H   19.710762   88.229431   87.866013
H   75.863190   45.307175   68.281532
H   26.953611   99.593842   86.253944
H   91.457451   63.816570   85.247597
H   69.888275   57.055817    8.839290
H    4.626466   39.039883   54.003151
H   65.797623   84.463982   25.066990
H   85.208809    7.465937   69.334862
H   37.135448   33.762436    1.376680
H   73.103493   54.019981   84.994736
H   59.702362   79.836731   90.683891
H   73.934372   34.024376   86.446732
H   46.255207   22.066975    5.915856
H   92.033249   47.134262   47.130848
H   86.347847   80.296913   25.739651
H   63.654903   87.772209   27.803839
H   58.369102    9.818549   76.192688
H   41.513474    3.660312   43.604717
H   45.341385    4.753630    4.725444
H   48.262028   89.273773   11.923288
H    4.903062   84.800201    0.970791
H   83.835716   62.311974   23.902369
H   22.637585   44.894581    0.619651
H   75.312790   58.577843   66.724113
H   56.468952   39.637970   34.513786
H   90.666000   76.488861   73.026581
H   16.019512   96.151588   83.056496
H   43.216709   54.699471   98.734238
H   14.007433   64.917999   91.905640
H   98.025398   46.929993   53.249020
H   77.159447   37.079826   21.474995
H   98.581360   35.254704   36.903431
H   98.943985    8.012655   46.312744
H   68.725113   65.529716   64.763008
H    6.017827   70.994530    2.847785
H   29.250822   20.369923   81.523750
H   75.394440   58.147701   41.365242
H   30.822256   78.694481   79.289589
H   46.370201   87.936905    0.881931
H   65.852913   13.995074   38.743706
H   38.175392   65.176208   10.447514
H    2.916467   17.569504   95.822716
H   37.312080   28.606392    0.315100
H   42.732254   96.956482   74.569504
H   83.473412   63.344498   71.671852
H   71.115189   40.959457   90.669128
H   17.464212   64.321289   92.682770
H   85.551048    2.963589   10.589706
H   19.577679    8.882739   71.302177
H   26.754194    5.710949   51.549507
H   35.594540   77.394279   47.781151
H   69.393684   34.766644   27.215910
H   27.264704   83.034630    6.729215
H   57.186241   54.025043   67.061226
H   33.908184   69.685982   51.803406
H   67.615852   40.894146   65.639946
H   88.743073   74.876488   50.644646
H   94.978928   73.746445   36.869793
H   63.810379   72.296768   27.381746
H   89.730721   78.999695   39.263317
H   45.845215   79.948067   70.860306
H   43.052811   80.042702   31.109421
H   52.375477   66.929390   40.249466
H   54.208427   90.853302   28.488859
H   25.138514   61.185951   51.045586
H   44.879990   54.866234   93.038704
H   86.337692   32.444420   77.859406
H   99.914429    5.511931   24.227701
H   96.304901   18.732529   15.423182
H   60.963631   56.479614   51.375469
H   62.646786   73.939194   16.611094
H   82.280281   64.741997   14.850623
H   48.918777   26.007668   45.451744
H   21.447315   14.333838   90.006790
H   22.642447   52.832581   87.260231
H    3.966413   55.377285   85.034294
H    6.177204   68.337227   83.700333
