100
TIME:    0.011, STEP:    11
H   16.578669   21.012451   99.135941
H    0.964237    5.341120   78.694397
H   79.953430   74.695229   23.210709
H   81.478455   32.197807   39.560486
H   95.072525   73.639221   65.407082
H   27.845760    1.201680   79.835136
H   52.392994   62.081760   91.312698
H   19.021719   89.553833    7.183460
H   53.357597   85.235718   99.393944
H   74.540001   16.545406    8.119234
H   99.231842   66.685120   38.689941
H   55.422276   24.241844   92.146461
H   42.562408   61.041870   24.035839
H   54.537449    5.043351   58.078224
H   80.636925   69.038528   50.244587
H    1.078919   10.776905   32.127460
H   23.181402   82.724556   74.356209
H    1.379922   94.165573   99.164841
H   45.435585   78.815414   63.940361
H   92.351631    5.301840   16.938456
H   63.623795   55.123032   56.942375
H   63.402561   44.114456   18.318827
H   85.597160   94.532753   32.036560
H   18.019550   36.813694    6.257313
H   29.189093   85.300102   36.639420
H   46.602207   27.288021   88.138756
H   61.131191   42.020275    0.184684
H   31.612183   56.952618   67.140060
H   11.410180   50.089809   56.652161
H    1.415918   90.567398   84.263329
H   16.534456   23.028620    8.541555
H   66.451904   52.206024   98.245781
H   71.133606   67.677452   98.787918
H   78.566917   72.714630   71.288063
H   80.498405   58.088669   25.398590
H   73.511559   85.350151   20.606482
H   80.855919    4.130321    9.330587
H   63.533440   58.752918   23.217958
H   50.226833   80.273170   41.072716
H   62.156422   11.153107   38.899475
H   34.489742   56.556545   42.596752
H   30.632553   12.350101    3.317261
H   11.336617   63.565899    2.268185
H   78.657288   12.956254   81.806778
H   55.700531   31.457939   57.048393
H   77.810951   63.410702   83.361427
H   36.196217   26.333782   27.717230
H   56.240002   95.494934   69.258560
H   65.348442   31.538044   44.035881
H   26.120489   30.916821   82.895523
H   43.536709   68.583015   53.545155
H    5.668149   62.719147   73.340561
H    9.107637   22.072510    2.230573
H   76.429276    7.022875   32.301044
H   39.884171   59.469929    0.499533
H   93.580002   12.520939   92.252335
H   96.949837   89.229393   57.033653
H   25.241156   75.847633   13.271698
H   91.144951   39.233871   10.638595
H   58.298546   28.633207   63.284439
H   60.394699   78.058701   13.538671
H   98.520721   27.842972   94.856125
H   74.979851    6.403172   32.803436
H   43.794823   41.854317   26.842375
H   32.757828   59.966610   96.585350
H    0.669760   41.726337   46.836269
H   86.685783   48.742016   67.593430
H   79.605858   18.166237   66.728462
H   57.452057   48.995934   59.543873
H   30.609497   48.697533    1.707664
H   21.683741   94.655739   62.015476
H   73.059349   51.160454   57.427883
H    6.274206   17.762920   61.467678
H   29.948879   48.684284    2.554838
H   62.700443   28.659349    2.231490
H   25.917715    8.277155   95.189926
H   67.954559   25.590778   91.226135
H   32.497131   50.000645   15.047476
H   62.081795   53.467197   17.811108
H   98.985977    8.354705   19.973383
H   11.097483   29.394499   80.646164
H   42.149738   44.299393   85.860657
H   18.491898    7.440946   30.947451
H   50.927170   13.102879   62.425484
H   51.795830   48.198105   46.685890
H   51.047245    9.451499   42.549320
H   67.889381    2.553139   24.067730
H   56.132248    4.413420   95.623497
H   55.911568   93.560127   28.111095
H   65.362068    8.834557   24.605124
H   24.472750   74.024521   33.694042
H   79.100517   96.334053   33.734756
H   85.990013   27.960981   19.765593
H   48.291489   13.899416   27.560734
H   56.401478   48.744892   16.340332
H   94.830109   95.297295   66.880730
H   61.729179   68.311653   36.556236
H    6.905837   16.331329   55.859077
H    8.187925   36.897709   44.130077
H   39.924664   78.419838   96.626328
