100
TIME:    9.923, STEP:  9923
H   46.269684   12.035638   90.061234
H   26.426903   42.577587    3.781191
H   50.338100   87.804634    6.858549
H   83.142151   23.823393   96.248550
H    6.280691   68.129196   96.653404
H   74.143921   90.457771   61.454597
H   32.905994   31.386759   66.444702
H   39.958069   47.066952   97.096230
H    9.701591   32.236053   75.470802
H    3.724151   58.864582   96.246315
H   77.241669   65.514542   83.913002
H   77.108879   21.078621   86.599388
H   10.992891   61.361702   38.987457
H   63.753876   74.490425   12.384174
H    1.130913   83.661560   73.701683
H    2.539690   43.827133    9.344876
H   26.158485   38.299767   76.718185
H   13.264792   11.985640   55.545395
H   99.823776   94.634079   86.154846
H   25.173244   95.086884   91.936607
H   75.431335   68.352913   87.914749
H   13.708023   57.256912   74.243179
H   53.255478   13.925360   48.459084
H   97.067810   55.536102   70.107056
H   74.681259   99.216064    9.818707
H    0.816506   33.573471   57.084057
H    6.407207   29.988951   96.850937
H   95.268105   19.611805   94.772881
H   26.937328   49.384007   88.106979
H   81.485268   45.245377   72.238716
H    6.587188   11.870773   24.302917
H   92.301712   78.348404   80.642281
H   69.321327   42.468124   91.739159
H   97.371887   64.338951   53.710869
H   33.999840    8.359596   28.776464
H   35.226322   62.647678   88.230812
H   31.544140   41.134041   90.359024
H   53.854542   77.360802   22.679901
H   26.218472   65.211571   82.700249
H   28.558090   83.224838   18.755259
H   57.084534   96.666183   76.126060
H   63.957306   80.521530   86.536613
H   96.684479   23.015022   18.221668
H   45.735401   79.206398   50.950703
H   95.882385   40.352238    5.235641
H   50.043159   52.176861   23.474642
H   19.272266   64.489441   20.722994
H   56.793270   97.573685   82.556198
H   55.087189   10.629850   48.625702
H   34.066460   81.776756   89.716805
H   46.535007   11.920738   52.325470
H   87.386536   42.958504   22.652632
H   14.695625   79.545654   26.559616
H   46.895195   45.302597   69.690926
H   50.711067   28.208830   84.735428
H    5.954844    2.095691   54.824448
H   25.327332    3.222206   99.747215
H   87.169144   39.782463   57.961693
H   72.887352   58.054924   49.696796
H    4.204107   90.502548   81.376869
H   85.654633   17.106081   40.727985
H   46.731255   35.580185   46.371849
H   47.760319   30.199392   53.041061
H   24.434364   95.817764   57.732887
H   26.183125   68.310188   19.654264
H   91.764587   48.971825   32.910061
H   91.427193   91.426300   46.145031
H   94.916130   85.044014   40.579391
H   51.464203   36.782837   37.879848
H   31.555939   47.049931   80.797104
H    6.923090   20.234646   43.123940
H   56.131371   22.118553   83.397247
H   59.994370   27.478086    7.321690
H   11.768024   21.394001   13.562838
H   40.471031   42.926342   53.670094
H   60.246689   43.544315   28.237656
H   68.002876   66.940353   66.731743
H   98.172615    1.889216   62.461845
H   37.356964   24.371738   28.398897
H   12.892594   68.466347   66.045937
H    5.074499   31.940348   73.067635
H   85.909569    8.831590   56.844765
H   45.525314   73.065956   74.959854
H   32.835934   61.291946   57.103844
H   69.164368   28.176903   85.830795
H   22.912144   73.543800   30.866581
H   29.889650   81.868904   96.710014
H   15.616718   11.029246   92.697403
H   61.615238   41.675087   47.033455
H   89.012329    1.015312   78.938919
H   30.113363    9.243897   43.017723
H   12.500414   41.783569   22.599115
H   21.536793   25.253950   86.365410
H    2.566635   14.908357    1.599309
H   85.027466   60.888718   44.104897
H   13.520751    3.884433   54.913101
H   74.961357   37.138214   66.507202
H   19.123621   77.449844   79.669701
H   36.004051   79.652107   13.881824
H   55.565994   23.995281   41.826138
