100
TIME:    8.724, STEP:  8724
H   27.353283   21.988905   91.158951
H   59.540604   77.605453   28.180702
H   29.728456    1.543948   20.933685
H   82.940903   73.221428   61.972076
H   17.024599   72.024323   29.161137
H   92.731934   91.756737   42.713020
H   95.745781   50.425064   72.681328
H   34.197098   43.338352    7.184419
H   39.175301   47.515686   50.943195
H   36.476662   41.648716   49.300606
H   88.769806   17.271263   99.409966
H   22.869965   60.979626   71.945290
H   87.449051   33.934990   58.139442
H   23.120916   78.186073   21.140057
H   86.567696   90.762154   31.363609
H   50.750458   48.696068    8.872421
H   22.574959   58.994312   67.568489
H   87.619461   70.329155   97.110428
H   81.144287   44.336758   22.976276
H   57.473576   20.550215   10.303034
H   46.582191   87.715363   20.460287
H   98.758720   55.665222   76.349106
H   69.264229   23.674402   82.746017
H    8.472143   41.192596   59.154972
H   17.564354   94.302841    0.968198
H    6.472359   68.919968   69.915619
H    9.798292   79.831375   73.067062
H   96.436340   63.646534   55.143242
H    0.865461   40.601254   44.783348
H   35.509209   74.920334   76.921722
H   59.401798    4.354163   19.163963
H   16.595814   11.478519   91.639717
H   84.863785   30.192547   83.723770
H   46.712234   74.220184    4.223835
H   63.839455   99.140816   55.828930
H   30.999514   68.733398   91.999641
H   16.544453   85.042732   95.882530
H    3.414157   99.296852   38.069336
H   76.830070   91.337242   98.892380
H   41.490089   95.471321   24.420374
H   39.027451   55.521965   47.878139
H   65.002686   75.814331   25.336937
H   86.365936   15.820457   31.616695
H   22.287647   59.079346   33.720814
H   99.913879   87.693840    2.647048
H   65.512718   29.308289   18.603521
H    9.897420   99.278267    9.209335
H   56.720089   85.224365    8.369043
H   20.042389    9.929184   96.469238
H    8.900644   63.518299   73.551384
H   42.902561   27.397896   45.392517
H   29.115812   54.217091    1.359557
H   89.828346   72.593445   96.195938
H   74.661804   64.869003   16.782269
H   46.177315   23.134253   74.544952
H    4.461491    3.356922   95.641235
H   49.314774   37.819283   85.712379
H   76.448914   53.013222   88.844139
H   78.320488    7.388331   41.744370
H   83.324654   98.342911   15.479271
H   10.016895   72.863647   34.204250
H   89.286095   46.740311    0.620428
H   66.334290   11.972657   35.239594
H   42.101452   89.286346   90.281967
H   78.594528   64.073761    7.996744
H   65.419807    8.577548   62.015324
H   87.625320   49.972271   88.256332
H   77.739334   16.472240   83.260254
H   91.704407   22.935326   13.077879
H    7.204872   86.828384   83.340149
H   45.002232    1.818385   57.504036
H   54.866356   61.929100   95.512009
H   38.170486   86.786125   38.066921
H   38.158978   97.278358   84.803505
H   82.715332   41.160847   62.761189
H   31.898142   66.700798    8.915364
H   59.108231   70.716797   45.464645
H   41.845020   80.284599   96.241394
H   79.860298   27.893581   15.016062
H   71.692284   33.782341   69.340843
H   81.602119   19.536142    1.404545
H   95.938522    1.047966   57.153343
H   69.687675   53.014317   60.773663
H   50.345863   58.690895   66.613762
H   27.544632    3.182900    2.059765
H   50.510586   29.500137   47.604309
H   49.811085   69.046288   39.537239
H   96.334953    6.970808    5.123544
H   36.733646    8.434271   56.839729
H   95.019699   50.348557   36.079018
H   81.044701   44.500637   17.697044
H   23.786554   51.607391   99.757042
H   44.678654   89.279045   93.644897
H   90.406296   42.447865   15.044340
H    5.757006   68.287704   16.554758
H   14.488265   51.230408   16.843239
H   70.132286   68.331230   35.463737
H   21.437975   18.124233    3.745584
H   93.121941   74.474541   14.310513
H   81.092209   54.759998   57.330296
