100
TIME:    7.766, STEP:  7766
H   92.139641    9.841897   92.036026
H   85.999039   25.691830   67.777664
H   13.261370   32.620529   32.178577
H   82.780106   12.690990   14.481335
H   25.608973   95.236488   55.136780
H    7.586572   92.794609   47.839401
H   45.953541   85.735107   97.764465
H    9.494011   60.458584   95.144981
H   62.724770   39.624222   11.244473
H   62.642738   27.893251   11.789055
H   77.880630   78.724533   91.689148
H   59.436691   12.959875   40.136269
H   48.537727   91.920486   53.342579
H   70.555382   81.138893   48.236813
H   74.931831   76.335434   77.434113
H   89.268677   32.486328   88.394806
H   99.611397   95.632080   80.357971
H   67.139236   16.945221   30.318302
H   66.219391    4.144876   72.503815
H   83.286972   40.893108   45.077980
H    3.431264   83.087524   46.459881
H    6.914322   54.393463   57.931641
H   82.054909   31.462099   10.155299
H   97.484253   29.732149   30.302761
H   51.827217   70.278336   93.893593
H   10.990017   97.161789   60.068169
H   92.407974   19.652983   54.059948
H   77.268730   18.930319   23.474501
H   80.034874   53.684132   90.069664
H   98.776810   98.630600    0.763788
H   21.695871   18.448193   94.957878
H   56.107235   37.944576   80.326561
H   17.383211    0.285365   97.419563
H    6.233329   62.015144   44.581482
H   87.681282   71.674858   97.540695
H   47.722584   93.694916   95.010933
H   24.659782   20.127790   20.395597
H   43.008858   16.829189   70.465462
H   17.265781   12.209513   91.729546
H   31.723377   85.156494   49.047745
H    4.500922   22.653570   25.308073
H   45.737816   72.057526   76.427391
H   78.121429   10.073788   62.418537
H   83.458176   42.994408   40.053654
H   83.012520   25.486134   20.667736
H   77.879478   11.039542   14.711500
H    2.408004   47.180000    0.009209
H   56.661617   75.357269   49.093609
H   92.039436   89.270271   34.684776
H   88.788818   48.936924   40.533699
H   42.968342   19.886438   35.291534
H   82.555923   43.111759   64.247284
H   69.962593   67.038635   51.833839
H   96.851807   80.495560   74.508682
H   22.454605   39.180031   66.402771
H    3.268303    4.364645   28.253830
H   88.582794   65.461769   94.598579
H   47.783127   43.484749   13.520259
H    2.761823   66.910484   15.290100
H   46.542236   24.708546   42.727074
H   49.586102   17.416985    8.898240
H   23.287422   55.657242   43.967842
H    1.293764   77.345001    0.932526
H   76.317802   84.067749   16.290974
H   40.568817   40.586872   18.782801
H   24.270073   56.202446    5.370542
H   64.487793   16.853703   42.005230
H   43.915092   61.683281   37.462311
H   43.959213   91.771111   73.163635
H   87.748177   38.710033   85.372040
H   75.426689   67.003571   68.993721
H   33.756428   93.737694   25.291204
H    0.632869   34.174473   62.632336
H   59.245327   57.908329   41.723755
H   36.566559   39.750217   90.125122
H    9.248219    5.300097   73.375252
H   72.101280   53.634285   28.472071
H   96.841125   42.922390   43.327381
H   33.920959   30.707531    4.324881
H   18.673325   85.968315   51.873329
H   62.847328    9.625192   44.146118
H   24.051247   94.834274   37.300755
H    9.091157   36.993076   69.538437
H   84.437477   76.712524   54.112362
H   74.190414   63.109447   94.926506
H   72.558884   94.311737   81.077744
H   85.828362   38.701012   93.856117
H   80.927666   83.631287   15.056610
H   16.850491   61.773705   64.674934
H   79.720398   89.761002    1.833915
H   41.839436   92.773567   97.465500
H   52.904255   79.556961   81.499260
H   83.269135   60.539333   19.561281
H   97.820259   84.327110   50.448208
H   22.322639   54.099419   94.541595
H   35.361374   89.061584   66.324898
H   46.173546   13.354384   90.558678
H   23.287142   70.719841   22.979113
H   38.758598   70.337669   94.552803
H   21.587862   79.344589   49.617390
