100
TIME:    7.537, STEP:  7537
H    7.625971   30.841671   92.245682
H   92.323654   13.282052   53.338078
H    9.325083   16.145920   34.867413
H   82.741669   22.126373   27.033653
H   27.660978   76.881126   61.346085
H   11.138053   93.042702   25.160152
H   57.954586   70.272995   79.856369
H   27.492958   40.647861   16.170975
H   68.354027   61.641571   25.659180
H   68.897469   24.605150    2.822015
H   99.181656   69.510162   13.747866
H   68.176758    1.481656   56.437004
H   63.140251    5.781672   76.099892
H   81.894264   81.844734   30.809177
H   72.150398   96.790848   88.448029
H   98.476059   52.515442    7.403845
H   18.026527   80.484451   59.511196
H   62.243145   28.088425   38.255707
H   62.652409   94.538483   60.438641
H   89.457840   45.755375   29.486582
H   17.020447    5.884511   52.674427
H   84.959869   54.089462   77.433121
H   85.112389   33.324287   16.707525
H   18.761606   26.992647   47.310997
H   60.017769   88.438019   92.202370
H   12.069744    3.912182   81.617607
H   12.154608   29.172228   49.515659
H   96.592003    8.241370   15.905049
H   75.055550   32.907246    0.894830
H   89.995728    4.298620   82.558708
H   12.683133   97.913467   13.075554
H   41.647976   44.270939    1.526242
H    1.252423   17.039576   76.789436
H   96.557426   83.001686   54.229141
H   93.380424   89.013390   83.609070
H   27.815952   75.758865   95.730751
H    2.695774   28.514894    2.351546
H   52.473068   21.020557   54.305542
H   26.932659   17.198446   13.921124
H   53.291725    6.594201   31.029627
H   20.150900   14.796720   19.912931
H   65.036629   71.159500   64.735588
H   76.150665    8.700106   45.878445
H   98.081665   39.150719   17.663605
H    2.877274   34.520550    1.071037
H   80.835625    6.672521   13.781153
H    0.617850   34.726448   97.811317
H   56.647640   72.998642   34.924374
H   85.344429    8.236439   43.820526
H   83.980713   45.451397   56.546158
H   42.984066   41.995117   32.876999
H   71.426697   64.362091   79.279602
H   65.213890   65.710815   65.133003
H    2.155380   84.230927   64.403275
H   40.688126   19.111294   64.456467
H    2.983083    4.605531   36.049530
H   74.064133   72.069420   72.818840
H   64.835129   65.110741   19.419264
H   84.700249   57.233646   32.870567
H   61.653175    7.106210   49.240379
H   35.140820   28.066624   26.752350
H   31.415077   57.788742   54.330078
H   85.747704   92.971344   16.635742
H   60.593243   82.820297   22.509014
H   31.478542   58.877590   97.456551
H   38.337494   67.586754   91.830109
H   82.860626    8.936966   30.949301
H   59.733620   48.586784   26.514786
H   32.545204    8.225571   87.525055
H   83.097313   27.208666   85.857742
H   82.698250   82.584488   71.740211
H   52.613216    1.341278    8.505836
H   15.564558   45.501125   68.503235
H   64.285896   72.401794   55.330414
H   25.535685   39.413021   72.762131
H    3.834131   90.623802   88.784950
H   51.303425   73.454659   24.410864
H   86.082291   57.895397   30.679895
H   22.940237   31.380177    1.769259
H   29.903011   98.442833   71.601936
H   58.364189    7.256082   30.459091
H    6.867553   93.349213   56.458050
H   94.606606   33.163364   47.729439
H   68.681847   57.116695   75.028191
H   85.340607   77.435814   17.125196
H   77.828232   85.901047   65.175354
H   70.533974   55.351173   82.936546
H   77.244713    1.955294   17.430962
H   12.097421   74.524269   66.547859
H   99.966156   99.181534   93.647110
H   32.467823   80.407372   92.629440
H   35.960575   62.333740   77.134926
H   68.589737   53.667866    1.852359
H   75.687599   70.433922   35.007061
H   26.282513   74.611588   89.279236
H   16.446930   98.104736   78.152977
H   64.350700    0.212900    3.728679
H   23.729166   59.388660   27.576689
H   49.667686   69.348793   13.734043
H    7.364201   85.221939   71.677811
