200
TIME:    0.446, STEP:   446
H   15.801192   61.791325   18.862049
H   29.800371   35.885529   98.259956
H   13.820062   78.154739   55.494804
H   24.786472   79.381538   39.112846
H   13.022988   88.950287   50.696716
H   82.917053   47.223831   59.451996
H    6.343795   55.157967   53.638653
H    7.504972   97.781952   17.760204
H   95.794395   84.417923   42.694050
H    3.609642   72.013329   87.946999
H   19.373888   98.994820   99.471466
H   31.629639   47.521278   22.557722
H   16.230190   93.844582   52.848747
H   94.666924   54.076061   52.192379
H    9.676167   73.530388   42.471733
H   23.295879   17.478642   49.879150
H   93.898239   17.366497    5.430428
H   31.670429   93.070038   39.852909
H   71.879410   22.244019   45.516342
H   90.711632   76.875694   29.485142
H   60.557289   87.041595   16.402683
H   85.442940   56.688362   62.636261
H   88.836464   61.043671   44.193352
H   12.971539   89.937309   90.940132
H   12.200326   20.989027   38.059719
H   18.490568   71.478455    0.152853
H    2.884997   62.930210   57.364487
H   99.237823   78.627373    1.273315
H   19.744915   50.268257   37.132118
H   83.740509   26.282820   91.500015
H   13.092543   60.055637   16.446671
H   28.180012   68.334457   98.674858
H   22.145866   13.418196   75.695374
H   89.608711   63.802666   41.890961
H   38.102726   81.288925   32.652149
H   26.332214   45.225060   81.838676
H   92.177032   69.982788   87.501442
H   22.725437   50.084011    5.905285
H   45.446152   39.024052   49.010651
H   88.107178   38.841366   55.649506
H   80.565605   95.600739    8.361871
H   23.592791   38.787193   33.722900
H   72.992752   83.049675   57.977528
H   36.822342   73.239052   26.115862
H   35.815483   82.580200   51.797844
H   38.160873    8.477385   44.928272
H   83.856140   16.119797    0.695839
H   85.100670   65.547462   40.242020
H   95.047089   20.934750   61.314854
H   54.745548   18.731138   96.997269
H   73.307816   67.888741   19.704769
H   13.263407   39.243633   67.970650
H   57.732048   88.527657   10.622681
H   19.340687   86.530899   84.753746
H   68.479355   71.803558   84.111107
H    2.664881   67.275185   85.393768
H    4.842587   17.525002   47.444843
H   69.659286   63.368229    1.585392
H   23.834356   78.456894   12.108829
H   38.338818   94.832436   63.186111
H   49.752350   11.357290   36.217850
H   93.638359   16.912882   50.645042
H   77.122559   29.473906   77.935059
H   29.117222   65.446236    8.266861
H   74.659851   79.150085   26.353281
H   30.658968   24.564386   36.566116
H   78.480324   18.816753   90.091164
H   96.187828   91.918282   91.349998
H   23.849936    8.637042   59.372429
H   44.051151   45.220432   50.971592
H   58.374794   80.155075   78.791565
H   26.350914   18.407087   43.322834
H   84.031876   29.224468   92.597763
H   14.576528    4.436676   66.569618
H   81.653397    4.206240   57.926605
H   58.520653   11.803882   61.531349
H   94.556885   37.619087   69.231728
H   18.925247    9.721087   40.923378
H   13.096714   38.871204   30.375942
H   65.172073   89.518066   84.492218
H   52.111217   26.620440   98.075439
H   35.694462   64.885857   81.488884
H   10.196008   15.925948   84.252419
H   17.956419   68.595711    0.565621
H   31.572517    1.502206   51.944283
H   30.470943   78.566711   23.494560
H   45.087906    3.213367    2.243594
H   73.618385   10.877285   19.212059
H   71.990860   72.558655   77.912720
H   22.412338   95.280632   52.599178
H   32.607361   36.671124   79.838211
H   82.620506   90.342865    2.862726
H   57.045605   14.538799   89.862839
H   50.790462   87.032722   74.761055
H   30.344761   54.139656   76.519447
H   60.741127   32.315033   19.375963
H   82.099998    7.154062    7.201121
H    1.231627   31.639778   50.543995
H   32.350090   67.714447   53.611282
H   70.786232    1.274817   27.300699
H   19.057158   86.122070   78.640053
H   98.232552   79.773163   64.728294
H   27.449583   29.641600   33.381535
H   31.774580   68.319824   98.342834
H   25.065664   24.765556   31.766285
H   95.578423   16.687178   34.246307
H   75.416710   32.654652   55.300522
H   63.537579   42.183731   10.775934
H   78.031746   37.489349    9.093739
H   10.984187   25.188189    6.545481
H   49.904861   94.276665    0.940787
H   94.265579   68.525574   92.857643
H   53.516167   82.665146   89.454582
H   62.526360   14.956242   69.641785
H   56.975838   90.546661   19.549725
H    5.631513   99.770851   88.227585
H   24.105289   11.343396   86.581589
H   39.725964   37.136013   29.860771
H   26.685648   65.447723   73.358475
H   76.218987   50.786312   57.027367
H   42.704597   23.128345   80.769569
H    9.400600   22.600040   54.247681
H   37.202827   13.134392   30.140139
H    1.042209   59.905762    8.844139
H   70.752342    3.851603   86.000008
H   55.269436   67.988617   21.553919
H   90.266182   50.151779   63.099045
H   70.922737   89.185631   36.742397
H   95.002800   45.026951   80.195732
H   77.729919   23.172955   70.011116
H   56.924583   77.830353   11.283764
H   73.793007   88.094528   14.184972
H   91.765083   92.617180   98.907516
H   90.819534   18.284687   52.242764
H   14.602714   97.645325   46.950806
H   56.871429    1.362468   80.646736
H   69.233765   87.089455   65.593712
H   92.975456   57.788952   79.943474
H   51.697723   47.214478   71.501366
H   43.559532   99.209953   89.733521
H   60.816128   57.010719   21.564301
H   47.754929   47.269943   51.049084
H   48.383331   60.552608   92.435959
H   48.273720   19.070829   81.538063
H   49.984905   62.935089   55.804661
H   53.488007   65.524979   19.980103
H   49.603386   95.875664   45.806896
H   37.027489   65.750587   67.643089
H   70.692352   56.191467   95.896591
H   16.028553   90.923836   82.287964
H   68.959175   64.808456   49.789043
H   42.458977    1.409777   41.696754
H   85.745560   24.135906   96.233063
H   15.355480    5.871169   70.861931
H   21.781216   59.319324   64.480293
H   69.617409   44.039692   60.398659
H   61.467571   67.061371   83.194992
H   48.974846   33.354706   14.550293
H    2.953587    0.958131   94.965294
H   61.370129   48.538605   86.146500
H   55.979454   76.040321   77.938667
H   33.932140   21.988754   33.759361
H   74.086632   25.588440   37.146397
H   18.836184   26.231319   62.385094
H   56.981758   29.078299   11.848640
H   15.462886   57.884708   61.175732
H   71.352608   94.235054   54.405514
H   23.812168   40.305130   56.531086
H   96.872078   27.500292   36.370506
H   35.873810    8.905150   88.083588
H   75.429565    8.083636   35.958786
H   39.046486   57.795654   58.090706
H   41.653160   68.602676   84.627762
H   68.689285   69.610512   79.018677
H   61.863342   93.486893   89.545311
H    7.267495   48.773582   23.484381
H   33.301510   59.356293   95.525352
H    3.555725    9.397316   67.514297
H   70.333382   16.590731   66.725494
H   76.501259   56.664848   89.290993
H   77.656845   92.571480   36.929680
H   23.382730   30.357510   77.136536
H   56.150883   89.951492   10.147705
H   55.966927   25.601612   84.768806
H   88.186920   79.399521   77.548141
H    3.572968   37.962021   84.985207
H   38.525024    0.995948    3.829605
H   80.524338   75.950386   32.734589
H    0.652766   62.092037   68.897751
H   53.359612   57.152721   68.305679
H   57.661190   24.208862   77.830391
H   45.964172   90.527435   22.000509
H    8.676232   22.424839   62.525108
H   31.504530   71.752457   37.464809
H   77.825302   45.054081   21.142437
H   75.831070   10.888929   26.744072
H   10.830585   91.176506   10.419782
H   22.922663   93.312019   41.157089
H    9.166253   12.188299   68.804024
H    5.859185   28.013580   94.886810
