200
TIME:    0.669, STEP:   669
H   22.653406   61.051235   22.675211
H   31.787979   39.141071    7.313118
H    9.146227   87.915413   66.478752
H   32.303467   81.988014   33.281452
H   10.655340   94.602188   47.490513
H   75.662476   41.171261   52.851589
H    9.574668   54.999741   57.954990
H   12.502276    7.410990    9.844816
H    4.850425   81.074760   37.253967
H   95.759613   68.889641   79.150993
H   27.146528    3.758414    6.518471
H   32.551773   53.473469   33.183155
H   21.703449    1.245601   43.709068
H   84.127029   55.016911   62.938137
H   98.909744   75.247055   41.923046
H   16.795853    8.290474   45.068569
H    4.388455   27.810690   94.603218
H   26.375387    3.790498   35.882797
H   79.299019   14.170712   48.799107
H   91.421097   73.813255   20.840557
H   63.233521   98.173561    6.186252
H   80.478386   65.212151   54.042717
H   82.158646   59.422279   38.842590
H   17.694925   91.970428   90.240875
H   21.893028   29.957720   30.102482
H   18.305971   81.375237   92.787689
H    7.203581   67.404778   66.330627
H    4.355891   87.826599    1.860096
H   29.137245   43.490059   35.826328
H   73.663383   32.256721   83.786072
H   12.801398   69.372261   16.719313
H   24.124832   73.561020    4.165334
H   16.757675   18.216557   78.419243
H   82.228233   64.045959   45.788765
H   27.401020   72.074387   30.955635
H   19.047863   40.140560   84.395813
H   98.577530   65.169655   89.175575
H   11.695044   55.852455   95.878929
H   37.192879   31.038794   53.967548
H   85.968575   37.924335   46.938568
H   80.631958   85.183342   15.763828
H   34.692429   34.111019   27.110270
H   68.977554   77.926895   66.258026
H   36.325546   84.069878   34.091278
H   43.435001   89.383919   59.845253
H   35.022724    2.673838   47.353554
H   88.058487    5.194363    5.584781
H   79.671646   65.544060   32.225235
H    3.671302   12.472299   61.475632
H   46.765343   19.737490   87.563255
H   68.002991   65.066193   10.867205
H    4.738980   43.081890   72.765068
H   63.747189   82.152679   13.535188
H   16.021769   91.236847   88.056076
H   59.040237   66.844109   76.899063
H   99.806206   61.781162   92.695984
H    4.206173   18.368874   45.052738
H   72.095627   68.552254   97.560188
H   19.128834   82.764725   17.502277
H   33.181160   93.580238   59.063728
H   49.030125    7.006500   29.702360
H   97.646751   17.441153   52.354904
H   83.266151   34.093315   70.411667
H   34.520500   65.764389   13.245876
H   78.244606   82.474533   35.472279
H   21.911026   33.228050   40.574509
H   70.150490   14.112846   94.698433
H   94.939034   92.425285   95.765015
H   31.782078   11.650567   56.549881
H   42.767479   49.107178   50.959682
H   58.276966   84.012047   84.756516
H   20.083548   12.545620   41.761841
H   91.109512   33.079739   85.130516
H   21.841698   99.534988   73.061989
H   84.368759    7.816090   47.441154
H   64.157242    3.931019   60.074139
H   93.614334   45.920849   66.077415
H   10.665732   13.781796   33.297905
H   14.792114   48.806267   25.436909
H   61.811340   88.274376   73.916595
H   61.575855   22.851513   94.764603
H   45.500221   60.875099   74.594994
H    9.325977   18.372070   77.727722
H   10.684402   75.887718    7.833510
H   23.631443    3.860337   45.624599
H   36.753300   70.764297   18.852413
H   55.082516    3.678050    2.754851
H   71.763908    2.577447   27.623133
H   78.816696   73.101387   78.715759
H   21.295399    5.276426   50.145824
H   23.259665   38.596207   78.846321
H   81.067169   92.299423    7.728495
H   67.639381   12.023771   83.511681
H   40.790749   79.021042   80.884232
H   35.995087   51.123154   85.807144
H   51.506172   37.300854    8.891057
H   85.125008   99.440834   16.805084
H   95.101562   35.104633   52.655376
H   27.297066   65.480568   54.401562
H   74.663620    4.898167   27.355143
H   29.006681   92.287781   89.140816
H    6.524461   83.146950   63.498215
H   32.072166   21.491684   36.497566
H   42.489723   68.731552    7.198750
H   24.770054   21.834972   38.996193
H    4.407012    5.769157   23.805607
H   85.980423   35.423607   54.262695
H   62.223282   50.745800    2.152890
H   83.698959   34.674458   19.876926
H   18.147741   22.078962    7.636900
H   52.838848   92.338821    1.097684
H    3.219600   74.133240   95.397766
H   49.643032   85.252907   84.604019
H   61.770958   10.148638   63.891224
H   49.534111   99.832657   11.730606
H   96.530853   93.247856   98.287697
H   14.936663   14.483459   89.181259
H   38.594563   48.112305   25.403221
H   35.154408   73.820091   62.337227
H   82.103973   55.237057   65.346283
H   45.032051   24.610226   73.462250
H   99.778694   17.317333   60.807255
H   42.579109    3.729090   36.755737
H   97.756813   51.881321   99.078636
H   64.079628   98.330368   78.624634
H   63.439342   74.089676   17.248215
H   84.723167   51.193008   54.486786
H   66.044952   90.934624   38.625797
H   97.747086   36.954872   75.113785
H   88.538628   22.115988   73.810242
H   65.926453   69.868011   19.805851
H   65.233490   90.306290   19.443859
H   91.036903    3.466584    0.566524
H   79.884926   24.002090   54.987049
H   25.619015   93.613113   36.703545
H   50.931999    1.076269   77.361420
H   69.602959   87.657707   76.695053
H   94.877571   50.826157   76.419968
H   57.526566   50.333061   71.448624
H   43.680328   88.515236   83.537186
H   71.856224   50.452847   28.767838
H   37.488953   54.045589   56.247574
H   41.214672   64.656990   84.914268
H   38.055382   10.998618   85.233406
H   60.466953   55.539299   63.096668
H   61.658764   69.366638    9.299847
H   54.877586   94.899086   44.210175
H   30.938339   57.449677   66.363670
H   76.653900   46.880802   93.679726
H   23.137239   93.358475   73.942818
H   61.099232   68.595673   48.105553
H   51.846203   95.239075   34.708439
H   96.105110   15.797565   88.405128
H   21.250273   10.989863   65.351242
H   30.624008   65.208740   68.514206
H   76.237381   44.592632   67.259773
H   63.801830   73.749397   85.835495
H   52.145321   29.776756   19.774729
H   92.747192    0.117885   86.695007
H   58.869987   39.439758   94.704315
H   58.169949   66.980606   72.009445
H   23.461655   20.833109   31.827473
H   83.685677   15.865622   37.053673
H   27.021828   32.782387   52.844746
H   54.846558   36.645077   14.039773
H   19.304972   50.789207   59.956711
H   67.512650   90.628181   56.769547
H   24.006973   50.451160   65.752426
H   99.902191   26.775089   35.843937
H   46.050465    7.222298   85.572388
H   71.169373   10.735623   35.940071
H   31.342712   49.512608   58.775501
H   45.961842   59.020203   78.353165
H   65.943298   64.276764   84.192497
H   51.498688   91.809357   79.059860
H   14.152453   49.978142   23.698326
H   31.010635   66.322777    4.853458
H    5.532156    9.609985   70.365768
H   64.630440   11.406513   64.117317
H   65.893311   59.056953   92.436798
H   73.585503    0.562777   31.744822
H   27.880688   30.629726   85.277519
H   45.882355   89.715004   14.566124
H   60.823444   26.014191   92.972740
H   91.070717   69.727318   76.629410
H    8.241374   39.843719   86.101295
H   46.290009   97.176331    8.770767
H   69.810905   85.396309   40.537853
H   94.194466   63.086479   71.446381
H   57.414791   55.939655   71.123123
H   68.313881   16.830936   76.237923
H   44.136066   96.587662   19.160097
H   13.629515   27.730089   67.634033
H   27.608852   80.652245   41.958939
H   70.172607   35.093498   20.412981
H   76.375504   11.436128   23.688864
H   12.312890   97.257149   17.946577
H   16.441776   88.879990   34.868031
H    6.192497   12.812271   58.830681
H    3.533316   20.458288   91.788643
