100
TIME:    0.582, STEP:   582
H   77.964272   68.648964   98.613174
H   85.080818   36.300114   14.712562
H   89.764008   15.775495   16.506233
H   81.574295    8.671171    8.261249
H   89.958130   19.407387   49.924492
H   18.991409    0.580214   36.382877
H   22.468296    0.636038   35.965931
H   74.142242   38.952084   54.757507
H   39.321327   30.336563   63.453705
H   58.935432   24.741943   30.480555
H   46.118805   89.660690   83.688042
H   33.627285   52.863289   51.501396
H    6.241954   26.495743   67.282036
H   26.264515    3.282827    1.529544
H   87.581001   18.037313   22.795740
H   78.122955   60.832249   84.728989
H   77.274620   20.485580   26.344515
H   13.581302   66.397980   79.369431
H   54.326965    2.767258   94.025543
H   76.895180   93.329529   55.893242
H   29.739838   98.276764   41.446716
H   18.153919   44.868111   69.700203
H   77.973488   89.888847   15.697966
H   64.967422   43.661930   63.851715
H    8.768541   40.017536   40.856400
H   43.990360   10.268193   34.622658
H   11.891870   18.283596   11.515265
H   83.433342   83.604980   86.011917
H   23.826279    1.895881   29.660194
H   23.309652   76.435287   29.655502
H   38.995975   74.233559   63.357231
H    2.505211   36.431557   45.385414
H   11.352665   25.900045   50.228111
H    2.692692   20.385742   47.232109
H   66.305305   14.925586   60.166893
H   23.157906   30.204943   18.641752
H   35.620564   83.221535   54.324596
H   39.934906   48.301952   63.510159
H   24.555294   68.084007   86.344803
H    8.375900   57.699078   83.824944
H   95.469101   76.149910   56.053623
H   79.314323   37.978554   30.143362
H   16.253942   66.990021   43.511360
H   42.194351   22.525053   37.636971
H    6.171661    8.929240    5.910486
H   70.518364   74.145073   85.600609
H   42.225452   57.137775   32.596382
H   56.270496    1.375589    4.588797
H   82.042107   84.247971   21.257376
H   38.096188   39.607807   42.958488
H   43.500217   13.455130   59.553394
H   33.416252    9.733360   35.854958
H   20.952013   25.383362   69.069618
H   63.211742   97.706490   57.498371
H   94.426193    9.525671    5.344725
H   94.294449   11.920290   72.814148
H   33.147881   72.753548   11.340551
H   82.721863   21.924309   98.563553
H   36.177780   63.359528   66.804123
H   20.613129   72.522980   47.056114
H   96.413284   51.504234   69.017426
H   78.254822   22.528183   69.022766
H   13.709255   67.465492   93.630470
H   83.004524   44.960419   11.338003
H   55.424095   14.360426   49.762146
H   65.592171   13.340137   80.598244
H   40.874046   68.481781   95.160629
H   40.163155   50.822617   94.025566
H   85.908958    7.967506   23.730038
H   42.176003   77.417137    0.506906
H    3.550425   55.804585   55.167240
H   25.978788   32.210182   99.232430
H   69.044266   89.518867   46.825871
H   17.380676   12.549145   68.618614
H   90.232590   29.471815   45.517750
H   39.418148   44.873726   56.767437
H   19.796444   76.101189    1.332498
H   59.323746   12.664806   46.582600
H   89.448906   51.797703   24.177963
H   70.983139   77.258217   70.781372
H   22.271130   35.302715   14.773577
H   84.991219   48.028458   38.112320
H   54.620205   16.971514   85.332550
H   90.205780   61.964085   10.270851
H   23.991179   12.478684   91.334175
H   37.897671   30.431679   82.199028
H    6.025198   61.036781   51.295132
H   65.324219   58.697639   89.690102
H   67.760933   61.767235   23.438873
H   14.879547   85.337723   45.018353
H   47.840397    4.858593   45.752514
H   21.349062   39.277672   44.612648
H   22.625885   45.069016   63.939934
H    3.479632   48.535889   66.058586
H   46.529911   97.596863   29.459583
H   41.992416   72.748650   37.388008
H   16.406107    1.080348    3.717472
H    9.002063   21.193054   46.723740
H   80.986992   39.359066   96.300911
H   75.385635   63.756176   41.631332
