200
TIME:    0.857, STEP:   857
H   28.430155   60.427303   25.889894
H   33.463318   41.885654   14.945354
H    5.205890   96.144142   75.738762
H   38.640320   84.185402   28.365299
H    8.659296   99.367020   44.787525
H   69.546509   36.068645   47.287121
H   12.298453   54.866348   61.593876
H   16.715252   15.528560    3.171733
H   12.484947   78.256310   32.667709
H   89.141632   66.255417   71.735527
H   33.699249    7.774345   12.459450
H   33.329178   58.491459   42.141239
H   26.317677    7.485548   36.003868
H   75.241379   55.810093   71.997337
H   89.833328   76.694290   41.460476
H   11.316163    0.544412   41.013012
H   13.232894   36.615456   85.476135
H   21.911406   12.828724   32.535797
H   85.554115    7.364647   51.566639
H   92.019211   71.231468   13.552685
H   65.489716    7.558137   97.573235
H   76.293022   72.398125   46.797935
H   76.528915   58.055367   34.331635
H   21.676973   93.684448   89.651367
H   30.064384   37.518772   23.394138
H   18.150347   89.718712   86.578491
H   10.844419   71.177055   73.889526
H    8.670703   95.582001    2.354766
H   37.055443   37.775703   34.725483
H   65.167870   37.293358   77.282837
H   12.555949   77.226631   16.949163
H   20.706116   77.967270    8.794158
H   12.215164   22.261715   80.715599
H   76.006126   64.251068   49.074806
H   18.378750   64.306076   29.525253
H   12.905609   35.854126   86.550621
H    3.973307   61.111946   90.586952
H    2.395823   60.715538   87.426445
H   30.234962   24.307142   58.146458
H   84.165627   37.151234   39.594818
H   80.687897   76.400963   22.003872
H   44.049973   30.168606   21.535402
H   65.592545   73.608139   73.238892
H   35.906723   93.200798   40.814682
H   49.858631   95.119789   66.629616
H   32.377110   97.781235   49.398186
H   91.601273   95.983475    9.706370
H   75.094711   65.541191   25.466690
H   10.941955    5.338140   61.611176
H   40.037636   20.585894   79.609917
H   63.530762   62.686646    3.416721
H   97.552650   46.317730   76.806999
H   68.818932   76.777794   15.990350
H   13.223578   95.204193   90.840103
H   51.082596   62.663048   70.818954
H   97.396538   57.149006   98.852112
H    3.669673   19.080299   43.036076
H   74.149582   72.922646   94.166573
H   15.161846   86.396439   22.049091
H   28.833000   92.524574   55.588356
H   48.421253    3.338578   24.209249
H    1.025823   17.886511   53.796402
H   88.445503   37.987511   64.069077
H   39.075920   66.032608   17.443432
H   81.266731   85.277206   43.160267
H   14.536116   40.531639   43.953781
H   63.128029   10.147114   98.582588
H   93.886238   92.852715   99.487091
H   38.468918   14.191117   54.170334
H   41.685280   52.383896   50.949642
H   58.194492   87.263664   89.785263
H   14.799849    7.604179   40.445847
H   97.076309   36.329922   78.835258
H   27.966629   95.402695   78.535378
H   86.657944   10.859372   38.601402
H   68.909164   97.294022   58.845638
H   92.819717   52.919643   63.418015
H    3.702563   17.205173   26.869255
H   16.224422   57.178337   21.262962
H   58.977829   87.225883   65.000824
H   69.555008   19.674122   91.973404
H   53.766960   57.493675   68.783104
H    8.592499   20.434273   72.227081
H    4.553784   82.035240   13.960770
H   16.936726    5.848400   40.296795
H   42.049549   64.186478   14.938903
H   63.508465    4.069800    3.185866
H   70.200493   95.580612   34.713947
H   84.571213   73.558937   79.392761
H   20.353764   13.703629   48.077526
H   15.379104   40.219147   78.010109
H   79.757629   93.948898   11.830662
H   76.570930    9.903479   78.157341
H   32.360497   72.266800   86.046371
H   40.758484   48.580093   93.637131
H   43.720650   41.504147    0.051766
H   87.675240   92.937599   24.901855
H   94.792038   38.860867   55.439159
H   23.037117   63.597298   55.067806
H   77.932449    7.952833   27.401041
H   37.394619   97.485779   97.993477
H   13.514830   85.991219   62.461197
H   35.969231   14.620939   39.124535
H   51.523109   69.078659   14.664777
H   24.520840   19.364346   45.091362
H   11.850132   96.564857   15.003527
H   90.027710   36.922771   52.383965
H   61.115265   57.964046   94.883583
H   88.476700   32.301365   28.967686
H   24.186972   19.457731    8.557020
H   55.312344   90.705124    1.229955
H   10.767926   78.860779   97.539215
H   46.377789   87.434517   80.514755
H   61.134117    6.095633   59.043919
H   43.260368    7.661013    5.138622
H   88.858643   87.748650    6.769065
H    7.206900   17.130764   91.372910
H   37.640736   57.365860   21.645287
H   42.293766   80.878410   53.046379
H   87.065308   58.989254   72.360138
H   46.994209   25.859524   67.301819
H   91.667580   12.863750   66.336998
H   47.111580   95.800064   42.333115
H   94.987129   45.116322   90.845604
H   58.454201   93.675980   72.406830
H   70.326576   79.233665   13.618422
H   80.050133   52.070816   47.226227
H   61.932739   92.409111   40.213596
H    0.060655   30.149712   70.829453
H   97.650902   21.224913   77.013092
H   73.515472   63.155365   26.990391
H   58.017395   92.170914   23.877361
H   90.423012   12.612923    1.965459
H   70.666512   28.822144   57.300617
H   34.906277   90.213760   28.064598
H   45.924767    0.834988   74.591736
H   69.914207   88.136772   86.054031
H   96.481148   44.956177   73.449478
H   62.440567   52.962181   71.404160
H   43.782166   79.499062   78.313370
H   81.163567   44.924236   34.840775
H   28.834360   59.757793   60.630157
H   35.171139   68.116585   78.573112
H   29.440819    4.193278   88.348763
H   69.303841   49.304283   69.244186
H   68.547592   72.605347    0.295787
H   59.323997   94.075783   42.864059
H   25.804886   50.451599   65.285057
H   81.679779   39.031452   91.810799
H   29.130213   95.410995   66.907448
H   54.473362   71.788483   46.686287
H   59.760098   90.036774   28.816944
H    4.838792    8.767933   81.805794
H   26.219854   15.305213   60.704948
H   38.078918   70.174377   71.914993
H   81.818344   45.058788   73.044411
H   65.769730   79.387733   88.061569
H   54.818188   26.760368   24.179186
H   84.142670   99.409363   79.722748
H   56.762245   31.768970    1.918827
H   60.016644   59.342819   67.010818
H   14.634453   19.858843   30.198795
H   91.778145    7.668810   36.975502
H   33.922630   38.305260   44.801762
H   53.046478   43.024242   15.887006
H   22.544039   44.807350   58.929016
H   64.275375   87.587410   58.762543
H   24.171204   59.004765   73.526474
H    2.457237   26.163708   35.400013
H   54.629887    5.803570   83.455322
H   67.577820   12.971379   35.924294
H   24.847725   42.529591   59.352818
H   49.594273   50.941360   73.063370
H   63.628178   59.780827   88.554283
H   42.760773   90.395111   70.220108
H   19.953819   50.997471   23.888783
H   29.079315   72.196342   12.717152
H    7.198395    9.789276   72.769699
H   59.821953    7.035942   61.919174
H   56.950855   61.073616   95.088867
H   70.153160    7.300233   27.374071
H   31.672688   30.859219   92.140770
H   37.225479   89.515633   18.291069
H   64.917564   26.362015   99.889061
H   93.501900   61.573174   75.854874
H   12.176986   41.430084   87.042213
H   52.836273   93.956268   12.936409
H   60.778954   93.359688   47.116390
H   88.749763   63.924843   73.595001
H   60.833508   54.916981   73.498367
H   77.294197   10.610981   74.895393
H   42.594883    1.696804   16.765490
H   17.805454   32.202694   71.941315
H   24.324604   88.155205   45.747711
H   63.720974   26.696463   19.798014
H   76.834488   11.897443   21.113173
H   13.562547    2.383661   24.292036
H   10.977904   85.143570   29.566044
H    3.685480   13.338310   50.422661
H    1.572458   14.088859   89.176735
