100
TIME:    8.621, STEP:  8621
H   34.318596   31.434160   91.253250
H   62.385300   72.024506   21.686230
H   27.957987   94.133667   22.142681
H   82.923615   77.464897   67.617744
H   17.947554   63.768421   31.953575
H   94.328735   91.868324   32.512192
H    1.144314   43.469704   64.626595
H   42.292694   34.427853   16.641670
H   41.707237   57.418686   57.427059
H   39.289925   40.169788   45.267738
H   98.350616   13.127065    9.331514
H   26.801460   55.816738   79.277061
H   94.016998   40.168961   68.375183
H   28.220545   78.503548   13.301426
H   85.316658   99.962624   36.316681
H   54.891769   57.704796   17.422455
H   30.857582   52.181973   58.191994
H   85.417053   75.341164    0.681128
H   79.539627   40.015491   17.550137
H   60.248333   22.737566    3.290374
H   52.694359   97.968842   23.255869
H   88.884010   55.528488   85.120514
H   70.639427   24.511702   85.692871
H   18.042345   39.960419   66.804718
H   21.247921    2.470978    0.207885
H    6.958197   71.956406   79.608017
H   18.680109   84.112564   71.023911
H    5.127243   58.838840   51.738251
H   98.625801   31.256224   49.652336
H   31.559681   77.469559   68.733398
H   55.347713   95.117790   27.312996
H   10.092484   14.324198    1.174942
H   77.609024   37.728539   74.444717
H   42.360321   83.659546    8.562868
H   66.402824    6.939307   49.561954
H   22.046186   60.665764   92.323402
H    6.665435   88.814705   87.766502
H    7.671188    1.181666   30.801216
H   81.177269   93.581566    8.873631
H   51.191132    5.113736   16.316526
H   46.066895   51.988098   45.451504
H   73.682938   75.410416   20.078571
H   85.479523   15.202600   24.177265
H   28.864239   57.349739   23.650433
H    8.848263   91.756569   93.833061
H   66.842339   27.344112   18.185068
H    9.092143   93.676888    8.220175
H   56.713802   84.163498    1.996162
H   17.031883   18.459343    0.577625
H    6.738636   61.950573   80.752708
H   42.909634   37.341942   44.306503
H   24.109697   63.775112    8.121095
H   87.692467   71.996216    2.177797
H   77.047577   66.549103   12.237433
H   54.378212   14.107802   73.669540
H    4.333204    3.465268   99.147598
H   42.785332   40.791283   75.916252
H   84.118591   62.740196   91.497093
H   70.196602    3.035927   49.652153
H   90.122063   90.426483   18.408836
H    3.519475   77.654053   42.234623
H   92.941765   47.699020    5.280947
H   59.341473   19.001379   42.302612
H   35.028217   88.725266   93.077942
H   74.506653   72.299805   98.404694
H   71.747292   13.697804   55.925159
H   95.889084   46.411686   83.283615
H   84.854218   10.581285   78.336258
H   86.571381   30.336250   19.538078
H    5.112901   81.654495   83.558609
H   48.273632    8.826913   58.739357
H   63.347794   65.349022   87.961777
H   44.886169   91.881432   40.708088
H   40.426090    3.797308   90.923531
H   77.753616   41.009182   54.951633
H   29.462862   60.099380   15.845775
H   49.753738   79.631226   43.637596
H   37.006680   87.019142   90.552002
H   74.920586   28.196125   13.866592
H   76.743584   39.393150   78.214409
H   79.585686   18.470560   95.248337
H   88.209122    0.379325   65.770103
H   63.173065   51.291782   50.964176
H   43.260056   49.877052   76.021690
H   32.559784    9.626091   12.044294
H   52.881428   25.716770   40.451706
H   42.931950   76.535225   34.625816
H   94.678429   15.212822    6.191507
H   34.596195   14.169044   57.682137
H    4.126119   54.586525   32.397415
H   76.829521   38.939335   15.521873
H   16.165598   43.860703   97.794044
H   38.076130   86.189171   85.679749
H   80.451431   36.198963    8.099392
H    7.537986   77.513321   14.188087
H    5.980872   55.297852   22.163292
H   78.308037   62.420235   41.387306
H   21.636789   13.027749    5.813490
H   98.028648   74.029762   22.938114
H   74.694000   57.402737   67.252686
