100
TIME:    9.344, STEP:  9344
H   85.425690   65.132271   90.591324
H   42.417191   11.200827   67.275383
H   40.385654   46.148369   13.655853
H   83.044968   47.678215   27.985693
H   11.468950   21.719788   12.352026
H   83.120117   91.085045    4.113150
H   63.249249   92.289085   21.166149
H   85.466324   96.977280   50.259300
H   23.934517   87.904373   11.915331
H   19.540716   50.550999   73.576118
H   31.098907   42.217072   39.686150
H   99.204811   92.057198   27.812519
H   47.913834   96.409172   96.526840
H   92.422928   76.275063   68.323616
H   94.098213   35.380684    1.548875
H   25.821587   94.468430   57.407288
H   72.718086    0.004784   24.009535
H    0.882708   40.159782   75.616287
H   90.803406   70.347107   55.638477
H   40.771152    7.383635   52.515556
H    9.790304   25.992708    3.631742
H   58.198727   56.488281   23.550339
H   60.986336   18.634348   65.007675
H   50.866016   48.609589   13.107132
H   95.390121   45.135071    5.544853
H    3.547852   50.642380   11.569605
H   56.336166   54.059284   85.365646
H   44.121857   92.586044   75.636620
H   14.347539   96.853081   15.476212
H   59.283318   59.575485   26.209484
H   83.801186   59.949459   70.111557
H   55.743153   94.348297   34.243172
H   28.535873   84.831177   39.578270
H   72.908218   17.400726   78.103859
H   48.409462   52.198067   93.548767
H   84.895645   17.294748   90.050789
H   76.009674   62.337654   44.735920
H   77.786247   87.953773   81.821114
H   50.660053   77.827721   38.809067
H   83.092819   37.429298   73.201920
H   96.655777   76.796631   62.485073
H   12.752550   78.245667   56.987370
H   91.701630   19.540722   76.399040
H   82.702553   69.488075   94.341011
H   46.132797   63.238430   55.704906
H   57.513016   41.133312   21.122366
H   14.744718   32.997723   15.163506
H   56.757931   91.610168   46.730930
H   38.163879   58.579212   71.739624
H   21.914137   72.959587   30.200016
H   43.310291   67.575523   51.238785
H   59.247570   96.684891   60.660652
H    2.685796   76.188416   60.189072
H   60.302063   54.751457   44.140572
H   96.811256   77.468781   79.814423
H    5.233700    2.704742   74.534973
H   88.621170   19.929573   44.679665
H   30.282011   94.461281   72.874901
H   27.220306   33.586838   94.146294
H   42.410709   45.999676   97.845009
H   49.129612   44.031475   85.867455
H   67.281090   40.969437   72.570122
H    8.424392   69.665184   92.724335
H   84.675903   92.663727   73.451828
H    3.201489   14.553043   65.734688
H   27.332329   77.755730   98.674568
H   37.882278   71.406555   18.190510
H   34.911880   51.931038   12.899841
H   22.605204   78.386093   74.194214
H   19.796768   17.970057   82.025146
H   25.311111   59.633610   50.068123
H    3.812017   41.343163   40.957081
H   97.745636   56.116566   22.168636
H   24.512280   58.037136   47.964516
H   12.580983   42.073780    9.769938
H   46.557106    6.435095   67.195450
H   15.417230   17.052990   56.462418
H   70.970146   39.746574   30.484146
H    9.593226   26.072445   21.936213
H   41.286400    0.006725   15.927149
H   93.739876   25.950327   38.461571
H   42.462021    5.072796    5.285243
H    8.901884   63.382969   19.818089
H   93.001518   11.745361    9.987900
H   97.356339   64.395370   41.957581
H   36.239498   52.275909   90.658813
H   91.219475   23.967247   69.101143
H    6.305802   57.360023   98.696259
H   49.599857   73.913414   51.768929
H   40.203800   24.838455   58.240120
H    6.417880   77.978409   30.790306
H   69.660278   98.237946   11.568818
H   84.421997    7.880239   41.590446
H   49.875710   80.027573   57.540020
H   95.037338   12.750500   30.799829
H   65.697678   26.747274   84.819031
H   20.919563    3.911850   99.805710
H   20.241228   48.800808   91.296349
H   63.586418   77.151848   62.380672
H   19.603783   38.852253   97.602234
