100
TIME:    6.723, STEP:  6723
H   62.673172    5.489582   92.990921
H   14.803196   69.174767    2.011463
H   95.330704   57.583366   44.425106
H   82.605042   55.663055   71.653442
H   34.953751   11.635435   83.417587
H   23.763050   93.924568   44.547619
H    0.618598   15.306114   16.200510
H   91.471748   70.226044   90.910027
H   88.363701   39.904419   76.898643
H   91.130440   12.916904   70.950386
H   74.897949   36.756901   92.156197
H   99.240814   60.679859   14.378670
H   15.058182   55.036564   56.990410
H   22.198166   84.353706   68.864311
H   62.263557   69.501335   27.593708
H   31.207306   23.710976   74.973145
H   83.483376   26.645222   85.409554
H   44.835598   67.697891   66.469765
H   49.977131   60.393448   17.556332
H   11.389496   63.038715   74.065727
H   65.324371   86.921295   74.767586
H    6.920898   53.008865   46.752716
H   95.980461   39.944496   39.998291
H   94.394142   17.254854    7.764545
H   89.131783   52.993263   86.190773
H   15.899096   27.910561   58.215553
H   82.347435   63.012039   33.362598
H   65.273514   70.246620   88.999161
H   57.356117   59.055065   39.371643
H   58.782627   24.445824   17.847778
H   80.648460   24.920307   77.476646
H   90.251678   66.759293   76.882286
H   43.916409   76.595833    3.457890
H   62.164635   57.599869   88.522568
H   13.639269   50.644600   34.084167
H   57.056438   12.002772   98.289406
H   24.622517   58.324829   38.211338
H   86.118492   35.919132   96.865776
H   61.294399   34.932549   92.803986
H   29.962315   82.798752   66.987228
H   75.782349   86.865776    0.736622
H   33.636246   67.967392   23.181519
H   69.145416    3.817221   87.083488
H   50.056507   25.487997   38.075012
H   73.484596   66.634659   31.415934
H   91.343498   91.147781   10.474154
H   94.258102   90.457108   89.998726
H   56.598461   64.614700   84.559082
H   61.547096   75.650612   76.291977
H   66.889893   33.061794   13.459409
H   43.039959   20.581350   24.297115
H   31.863808   39.895233   32.713264
H   48.328457   60.990967   12.406855
H   21.003723   97.508606   28.483047
H    5.499301   47.776886   57.532360
H    1.969248    5.461780   63.760010
H   22.461313   95.556877   95.400597
H   25.447023   41.983391   40.387192
H   20.506104   22.834644   95.358879
H   15.370899   44.540806   72.392479
H   83.792381   65.919205   90.218246
H   60.305519   65.365341   91.158951
H   30.484533   48.517860   72.454163
H    4.695560   78.386124   44.611568
H   99.169205   23.889027   21.652868
H   88.343048    8.052940   43.700073
H   48.169876   80.793030   91.648026
H   15.962362    2.032259   87.600876
H   91.974861   66.714432   38.578175
H   66.588829   86.289482   87.576416
H    8.546343   37.968628   81.502846
H   19.625315   28.401871   48.848953
H   68.638977   85.759399   89.369934
H   82.208900   23.921116    3.696260
H   86.313713   38.226383   11.046860
H   84.593529   38.454014   43.556549
H   77.374603   43.908405    9.974958
H   47.839092   11.119352   85.725761
H   83.905251   33.771152   92.688820
H   69.822830   42.786385   41.728661
H   42.431564   98.834183   81.807266
H   45.785065   88.070435   24.558609
H   43.120476   19.550329   70.208618
H   12.681733   87.460594   49.374355
H   24.975073   28.357491   96.033028
H   96.558578   56.002869    8.648755
H   16.168764   14.535888   44.122002
H   64.153343   67.093689   25.870796
H   95.203476   19.846392   73.205330
H   71.935898   32.673679   64.545517
H   99.155479   36.454567   75.439255
H   75.732819    1.113611   61.622482
H   16.410572   29.242649   38.904488
H   97.019203   21.049402   80.120590
H   40.356377   47.524796   70.573730
H   49.213837   30.247087   20.197479
H   28.961931   53.498825   50.543594
H   25.300379   19.113697   43.916901
H   88.444969   65.833748   81.915596
H   56.801304    6.112352   50.093113
