100
TIME:    7.210, STEP:  7210
H   29.738974   60.829262   92.545059
H    1.354705   95.562355   32.718456
H    3.704033   92.620674   38.706928
H   82.686783   35.599274   44.958530
H   30.591135   50.670635   70.212646
H   16.209408   93.396965   92.776505
H   75.093063   48.192120   54.284542
H   53.194511   12.359107   46.196037
H   76.392311   93.081192   46.243488
H   77.828896   19.909914   90.018410
H   29.598389   56.352528   45.245590
H   80.655807   85.090790   79.713600
H   83.991890   25.573338    8.596920
H   98.085594   82.852638    5.923428
H   68.178658   26.000084    4.174740
H   11.624683   81.115967   34.548340
H   44.321846   58.855022   29.743097
H   55.250187   44.000336   49.589638
H   57.560497   80.822006   43.211964
H   98.269516   52.698437    7.222890
H   36.425095   38.439293   61.548473
H   53.610062   53.655365    5.280167
H   89.478310   35.983757   26.064318
H   49.145378   23.080782   71.597214
H   71.713448   14.370483   89.787392
H   13.611538   13.550888   12.389356
H   40.352589   42.766197   43.026653
H   24.183163   92.978142    5.095653
H   67.945335    3.239888   16.351576
H   77.456802   12.392414   56.562767
H   99.813087   68.589447   38.946754
H   21.000912   53.304653   31.798225
H   78.220222   40.964043   47.330696
H   82.741158   12.969165   68.005493
H    1.518573   13.771828   63.715401
H   99.391014   50.147125   96.758614
H   71.331131   40.490356   76.585175
H   65.987831   27.005611   31.231026
H   40.736454   24.322382   45.609512
H   84.091805   37.207195    5.301877
H   42.498764    3.577433   12.209259
H   92.594322   69.877167   48.042690
H   73.336517    6.738560   22.260059
H   18.961361   33.662132   85.691032
H   31.242039   47.421223   73.089180
H   85.056847    0.436500   12.452665
H   98.062790   16.942371   94.672844
H   56.627682   69.630646   14.691488
H   75.784309   35.317623   56.865898
H   77.114990   40.474247   79.409431
H   43.006519   73.564468   29.430099
H   55.534740   94.703995    0.744998
H   58.430943   63.814758   84.123512
H    9.727135   89.564835   49.973282
H   66.723984   90.454704   61.675159
H    2.575805    4.949503   47.181381
H   53.333530   81.504799   41.718513
H   89.184494   95.991524   27.842997
H   58.913383   43.414883   57.973366
H   83.233025   81.972839   58.541039
H   14.512701   43.272827   52.246834
H   43.020943   60.832413   69.125946
H   63.548817   15.285378   39.059113
H   38.137440   81.039001   31.388050
H   18.499283   84.993774   67.004875
H   58.425720   83.842949   72.495316
H    9.096430   97.631744   15.160884
H   82.321648   29.885534   10.882293
H   16.246597   31.721710    8.033168
H   76.457237   10.783238   86.550934
H   93.081657    4.833350   75.662056
H   79.539711   12.201201   84.536629
H   36.886185   61.674992   76.885803
H   71.485924   93.098755   74.760010
H    9.784688   38.931522   47.968693
H   96.104195   69.667381   10.788365
H   21.604748    1.755955   18.611673
H   70.719238   79.276649   12.620069
H    7.260010   32.340679   98.120903
H   45.939499   16.256504   99.773354
H   51.962502    3.873116   10.914571
H   82.329018   91.228622   83.815468
H   73.924614   27.694738   16.586700
H   46.185604   29.134758    4.895723
H    1.262495   97.893272   48.823692
H   85.352585   73.891022   42.467575
H   48.694386   79.126732   67.343971
H   71.985649   28.122129   20.821411
H    5.310408   92.731407   69.222298
H   28.877611   12.635906   81.956421
H   19.085651   62.749268   85.723801
H   11.765886   37.739883   70.902885
H   47.628330   43.855770   76.564949
H   44.084892   50.595177   12.958058
H   31.937004    3.900976   81.764862
H   89.438004   11.017198   95.042854
H   90.306725   81.446930   22.535412
H   24.360353   43.209805   34.141380
H   65.245293   67.936729   41.124584
H   87.052147   93.614487    3.177514
