100
TIME:    3.459, STEP:  3459
H   83.404449    4.813455   95.979202
H    5.051314   92.285950   96.192734
H   39.211823   22.758095   82.737633
H   82.057190   90.138664   50.564350
H   64.189102   50.011608   71.917084
H   74.384407   97.460701   21.302111
H   71.682899   94.905190   60.951241
H   48.015717   87.849533   90.599800
H   68.599113   53.724670   82.355583
H   80.315834   66.049477   43.141533
H   78.507278    5.422991    6.561449
H   23.819832   97.072662   46.713326
H   23.235756   52.433121   81.332268
H   83.811745   94.414253   20.471195
H   22.575527   61.055435   84.501656
H   62.445633    9.192326   45.914406
H   45.954994   10.757459   88.274765
H   75.058434   26.489647   79.626160
H   99.143654   23.462191   45.594997
H   99.329674   32.360600   51.837425
H   59.014755   11.862488   63.356796
H   93.998047   48.675858   24.712448
H   39.561394   66.490395   33.385284
H   97.662895   78.166962   50.178776
H    5.871015   11.842758   62.085304
H   30.797548   24.543329   64.957939
H   63.806499   98.689590   68.604836
H   40.681423   17.894119   81.108360
H   86.383118   62.919479   93.664131
H   33.625885    5.229409   58.369049
H   52.189838   32.231030   35.713875
H   84.160652   56.940681   79.047112
H   14.004396   15.405460    9.410993
H   24.252583   56.726021   26.028343
H   94.789032   97.446098   35.357040
H   73.303413   56.208561    8.747056
H   11.562459   77.859360   81.021049
H   21.025642   95.646660   66.532280
H   99.065643    6.052580    9.109667
H   37.394398   88.363220   10.180773
H   98.854187   74.869080   23.838240
H   20.745964   67.101883   65.307953
H   41.035229   84.242538   51.320210
H   58.478378   70.743469   18.936968
H   56.612217   95.417938   52.106991
H   33.461781   28.891926   97.213326
H   68.758102   12.949739   58.667343
H   56.424145   30.996908   82.601265
H   66.137131   45.974617    6.492219
H   98.423576   83.387871   41.736958
H   43.280720   35.699753   89.887970
H   73.233765   42.769997   46.985744
H   80.627312   42.065186    1.975459
H   96.593071   50.771698   84.453094
H   65.382553   61.722549   29.767248
H   97.894211    8.896002   74.874283
H   15.538104   89.738533   84.967064
H   68.491936   50.227921   24.460018
H   63.079552   84.919556   45.934216
H   30.760529   93.657639   65.228401
H   77.896889   17.713245   44.704449
H   76.147942   95.746201   38.846115
H    8.891370   71.247124   96.276451
H   80.563286   60.610603   33.228893
H   69.617805   84.579567   17.690763
H   88.853432   70.315712   50.706879
H   10.046234   67.946869   34.063580
H   41.429070   15.361030   31.562803
H   29.298141    1.244652   43.290668
H    0.466272   22.119883   94.449463
H   12.193001   60.049522   20.655376
H   88.756821   36.727768    9.873096
H   81.457977   47.209034   73.060783
H   54.068005   30.486649   97.632622
H   28.944281   33.569645   63.613682
H    7.428481   29.261736   63.181370
H   81.010078   26.743183   52.223560
H   94.490433   24.544607    5.466441
H   27.384604   43.358555   56.276314
H   29.889565   20.568737   22.925156
H   78.566605   65.066605   86.725433
H    0.856299   66.817459   97.537598
H   36.649815   64.994171   59.352543
H   88.123749    8.152866   47.490120
H   83.904388   32.522114   12.441088
H   71.684937   36.108887   81.986588
H   98.173500   51.855446   88.481705
H   11.635473   28.358292   59.770233
H   27.468269    1.581117   99.900642
H   60.517368   66.964798   47.867470
H   65.579132   60.206203    6.509561
H   34.224335   55.641296   99.435402
H    7.183122   31.304235   86.494225
H   81.553444   23.046165   60.040009
H   96.785088   39.893787   95.571861
H   79.620789   59.138985   88.786934
H   88.043457   66.185524   38.259590
H   19.563536   45.688995    0.689416
H   43.934563   51.760685   55.310188
H   54.061642   89.870399   64.524261
