100
TIME:    5.738, STEP:  5738
H   29.284494   95.818413   93.892715
H   42.004951   15.796788   39.904835
H   78.391998   86.719025   55.990620
H   82.439713   96.243805   25.643181
H   43.776306   32.683426   10.124964
H   39.040951   94.991692   46.999996
H   52.240673   48.795650   39.172153
H   68.890808   85.011826   81.349968
H   12.576942   34.608170   38.900269
H   18.036478   98.772545   32.383640
H   66.520248   97.123642   87.036186
H   36.837944   11.306793   84.492241
H   77.913254   14.602150   54.865166
H   70.969460   87.389748   93.903770
H   50.293983   57.486099   74.952972
H   70.811188    9.862613   56.737030
H   62.691292   61.493488   95.741119
H   23.771185   15.627022    0.617653
H   34.639111   19.068720   65.660492
H   37.924797   83.959999    7.002297
H   23.775658   84.981262    1.505566
H   12.487991   51.701263   30.634552
H    9.132480   47.955437   68.179367
H   85.915215    5.471407   80.919846
H   24.360100   31.107750   78.916298
H   20.389280   57.031006   50.841492
H   67.285706    3.954182   13.816416
H   48.385609   24.270134   56.442635
H   35.938499   69.688263   85.934296
H   21.013565   48.824333   39.542740
H   41.882042   36.593204   55.406639
H   28.057926   93.978455   68.068657
H   74.534904   48.662666   14.721311
H   20.545788   47.869225   30.017569
H   38.140915   25.171087   74.131592
H   71.432190   34.853889    1.386265
H   30.148197   94.396606   60.597271
H   26.830784   53.947506   27.356419
H    2.868041   56.395256   88.257729
H   22.738314   75.011467   89.488365
H   43.099625   53.065948   77.530495
H   16.646770   64.104706   72.893303
H   60.665592   97.909027   15.936135
H   12.953747    8.955099   41.767075
H   58.925838    5.501163   47.126812
H    4.057411   72.360397    6.472441
H   86.562790   36.890518   80.544914
H   56.545856   54.469513   23.612814
H   32.757309   57.227737   15.582347
H   46.220928   18.067381   82.340744
H   43.107594   15.676584   13.914830
H   83.988930   31.295589   97.371925
H   27.895298   55.279602   69.616173
H   43.811607   13.580354   85.019005
H   83.926598   61.456791   49.153187
H    0.742407    6.497904   97.291733
H   60.014755   23.979424    1.718910
H   98.792633   35.004707   65.757675
H   42.820168   81.213432   70.974663
H   80.369644   68.830826    0.408224
H   21.658115   11.728916   67.015190
H   95.265083   74.533585   35.728111
H   63.614635   15.732054   39.998566
H   37.057663   73.020447   71.355225
H   60.075661    2.559162   29.924372
H   48.851494   57.020073   85.458672
H   27.198349   46.739071   44.093399
H   84.002754   45.700047   40.512180
H   42.883953   37.490242    0.354222
H   46.635651   36.746773   89.650543
H   39.825951    4.987118   93.316353
H    0.843342   61.091919   76.732010
H   32.863556   34.481033   14.624458
H    3.895792   86.260826   62.220970
H   38.823193   36.821087   36.377823
H   61.311333   75.325615    9.835371
H   87.928215   29.214048   92.527534
H    1.562004   75.527458   31.328012
H   36.670597   36.664410   81.701958
H   18.128036   96.443153   26.587231
H   23.155710   88.643906   22.935701
H   71.863876   81.682587    6.956954
H   80.816429    3.078770   76.402145
H   44.914703    3.171875   39.339130
H   72.936058   89.969429   91.517731
H   19.229725   19.819633   40.247437
H   50.382774   86.153435   97.153412
H   48.311821   45.913372   36.083618
H   74.762802   74.689690   81.261360
H   59.023220   73.200119   29.337561
H   58.845268   83.266724   54.637859
H    2.852792   27.031488   42.857643
H   53.270294   99.686470   62.732929
H    1.823710   61.290966   13.703498
H   57.385262   35.754726   47.938694
H   67.856857   69.144318   71.073715
H    7.147184   96.972939    7.191556
H   27.201662   70.373306   63.688744
H   35.367859   61.584560   64.420570
H   95.621063   31.388828   44.981327
