100
TIME:    4.992, STEP:  4992
H   79.734047   64.229500   94.575699
H   62.608284   75.373749   92.867065
H   65.563293   33.047913   64.749397
H   82.314499   26.980545   66.536018
H   50.458160   72.888321   30.350224
H   50.611828   95.799889   73.121269
H   91.339760   98.420456   80.833908
H   27.524940   20.473736   49.845631
H   30.915047    6.332922   85.858421
H   38.421257   88.061089    3.169325
H   35.911346   67.106522   58.894009
H   65.312401   73.913872   37.592567
H   25.517166   59.714302   28.991699
H    7.907147   89.689125   37.133774
H   41.221687   24.121737   10.810760
H    0.805614   75.110428   18.661434
H   22.680305   12.153518   27.829802
H    7.818552   51.923183   26.477121
H   23.020500   87.773407   26.360247
H   58.021584   99.805214   56.211189
H   68.044365   59.248810   21.753174
H   40.968246   50.710938   94.163391
H   19.093636   54.022606   89.522598
H   55.229885   96.547089   36.323586
H   51.041168   90.268661   73.406898
H   23.789968   79.081787   20.993284
H   31.612772   34.965206   99.014076
H   11.331725   89.449402   31.781244
H   19.717644    2.005590   21.197445
H   92.409286   67.287651   80.238472
H   12.521167   69.697067   14.427788
H   80.955208   14.589868   37.129585
H   21.986706    3.244290   47.515739
H   89.024963   16.235596   61.446007
H   56.683914   81.563095   28.706238
H    6.584019   76.423393    3.732456
H   58.596008   21.718151    1.815498
H   57.661793   67.599983   74.712410
H   34.358776   72.650261   60.550323
H   93.002953   44.849197   30.794161
H   94.084335   27.471144   59.955059
H   82.967949   35.901260   37.326923
H   54.239857   93.435486   62.050110
H   60.586239   96.433350   68.826706
H   23.637026   34.932564   83.289207
H   13.683735   58.131580    3.440856
H   80.734665   96.319176   73.384972
H   56.506016   46.785950   77.454613
H   10.953064   19.012661   45.341797
H   30.574917    6.712782   34.516991
H   43.163761   87.697830    6.050560
H   47.733894    0.518643   46.347130
H   12.420362   50.954041   12.940962
H   61.085396   25.754250   52.099205
H   43.324829   96.078865   42.807133
H   99.812332    7.282623   22.687347
H   12.723748   45.504784   30.768288
H   54.340714    5.454612   84.972275
H   83.985100   49.693573   28.244106
H   29.598400   11.489156   21.626228
H   74.599731   46.420269   25.180534
H   21.739897   81.477249   69.483643
H   12.966794   66.637985   91.154022
H   85.831459   68.956696   91.605682
H   30.462786   62.142429   60.452351
H   94.679680   94.106071   41.349327
H   87.050690   20.949535    8.075516
H   35.534294    3.034494    4.849067
H    5.701551   91.093056   47.143822
H   31.524553   99.224609   91.221405
H   63.514091   55.744476    2.264021
H   62.352844   85.850067   22.112255
H   81.503357   71.380348   33.753685
H   20.315853   33.475529    6.546272
H    2.856537   35.756771   79.825287
H   43.673286   27.512705   60.030041
H   20.195845   93.872749   79.334572
H   66.513565   24.305363   90.128853
H    0.898852   38.855648   73.380943
H   54.708099   37.078434   90.856049
H    8.557665   80.926193   78.349251
H   15.880694   76.829117   69.349510
H   33.629997   90.603210    5.356008
H   93.591705   39.335617    7.475513
H    9.259879   36.632591   63.833992
H   36.401066   92.418556   88.442734
H    0.559108   40.393860   61.581360
H   36.308914    5.623331   43.828773
H   59.281845   16.225866   87.362679
H   24.978487    3.889565    2.670474
H   28.315910   42.985058   38.883709
H   47.656345   70.925461   28.645895
H    5.450351   77.307381    5.043598
H   29.723511   16.033957   63.402111
H   70.282265    2.575871   30.796009
H    6.240350   98.603668    9.605713
H   66.360863   54.161266   50.094589
H   25.189245   58.741577   76.151741
H   70.905762   58.368847   26.904602
H   49.282444   50.529530   16.845057
