100
TIME:    9.122, STEP:  9122
H    0.438858   85.490852   90.794571
H   48.548477   99.170670   53.277134
H   36.569691   30.176632   16.262032
H   83.007706   56.824333   40.154831
H   13.458231    3.925746   18.370937
H   86.561768   91.325554   82.128418
H   74.885033   77.299614    3.805461
H    2.915085   77.770432   70.642738
H   29.391701    9.248956   25.889414
H   25.605101   47.363407   64.883919
H   51.748810   33.284363   61.071129
H    7.678360   80.929420   43.614754
H   62.069992    9.846249   18.588528
H    3.415071   76.959328   51.429134
H   91.401802   55.210823   12.224556
H   34.748108   13.885596   75.835022
H   90.569954   85.320183    3.800000
H   96.133804   50.962364   83.312576
H   87.344818   61.034466   43.943302
H   46.751698   12.098120   37.400749
H   22.964302   48.093903    9.657742
H   36.915371   56.193573   42.455704
H   63.950356   20.439013   71.359146
H   71.493286   45.953827   29.594778
H    3.330098   62.741348    3.906167
H    4.595043   57.186935   32.460880
H   75.479332   63.288395   80.961960
H   62.852768   82.223831   68.299400
H    9.519998   76.711296   25.969688
H   50.770653   65.069931    8.561710
H   75.064949   40.043102   87.675491
H   41.725880    0.482855   54.794838
H   12.897789    1.073957   19.578756
H   63.528366   37.745758   87.456612
H   53.934395   69.006599   80.042999
H   65.597336   99.906097   90.748604
H   54.716896   70.467537   27.243124
H   86.962852   92.015327   66.154152
H   60.031437   82.665001   60.322769
H    4.003374   58.213005   55.735420
H   11.827620   69.178253   57.254848
H   31.461517   77.375092   45.654652
H   89.791107   18.208607   60.363232
H   96.875648   65.761879   72.634224
H   65.388885   71.995140   36.706387
H   60.377106   36.898998   20.220457
H   13.009072   20.923929   13.031528
H   56.744381   89.323639   32.994816
H   31.675217   76.965797   80.594421
H   17.254698   69.578911   45.722912
H   42.875233   88.972954   49.588959
H   48.458538   17.284760   75.233467
H   98.081551   74.901184   73.082108
H   65.442993   58.374336   34.344063
H   14.487572   58.014130   77.927612
H    4.957199    2.938265   82.092377
H   74.546310   26.335243   23.565680
H   46.812683   15.426767   78.592918
H    9.711418   24.205996   11.189116
H   57.059742   28.935390    4.159203
H   35.124195   54.354733    3.174215
H   75.160301   43.035782   82.613914
H   93.353058   84.813866    7.947540
H   69.432373   91.454407   79.478104
H   94.390396   32.284657   45.061069
H   40.969917   88.792046   85.548195
H   55.693497   63.730648    7.471777
H   50.246872   39.234871    2.286957
H   11.540264   94.337601   88.116638
H   15.288070    6.819912   82.496002
H   32.361286   74.738747   52.730659
H   22.092962   48.714256   24.685078
H   12.220455   67.097466   27.861248
H   29.398678   72.087563   61.155251
H    1.887645   41.746891   92.937912
H   41.308250   92.207390   82.134109
H   95.254715   36.268307   52.524506
H   60.540745   54.261803   18.223267
H   98.947731   26.724529   19.458292
H   52.173668   12.100481   35.052696
H   89.393776   23.653635   25.192924
H   25.803913    3.631647   23.857759
H   94.860252   59.670322   98.675499
H   77.727501   92.748268   30.263615
H    8.165695   78.283920   63.478058
H   41.349468   44.120621   75.242523
H   76.392601   40.108452   58.515358
H    2.735678   75.123817    0.997057
H   44.992924   86.274223   53.584602
H   59.832386   33.972717   50.305016
H   97.332481   65.990219   26.102074
H   53.234524   81.541199    7.339552
H   70.191315    1.218855   24.422846
H   28.871450   66.594101   41.879986
H   98.875320   32.636532   25.699175
H   47.361404   35.513489   96.285553
H   38.540550   91.171776   12.573433
H   20.669741   37.816998   95.754234
H   74.162041   76.193199   80.974541
H    5.814850   44.548252   18.988422
