100
TIME:    0.077, STEP:    77
H   12.115432   14.959922   99.075516
H   99.128288    8.919575   82.857666
H   81.087402   79.443611   22.435760
H   81.489532   29.478456   35.942551
H   94.481369   78.929413   63.617500
H   26.822315    1.129847   86.371086
H   48.934177   66.538307   96.473984
H   13.834249   95.263977    1.123482
H   51.735191   78.890106   95.239738
H   72.736320   17.492817   10.703905
H   93.092682   69.340790   32.332748
H   52.903065   27.550102   87.448433
H   38.364395   57.048798   17.475971
H   51.269474    4.839858   63.101036
H   81.439568   63.143158   47.071781
H   98.426270    5.003030   26.648441
H   17.875349   87.089241   80.365456
H    2.790243   90.956009   96.876755
H   46.463310   81.583878   67.417801
H   90.565071    3.917860   21.441111
H   59.707260   48.552338   55.151283
H   69.731056   44.201569   12.698891
H   84.715965   93.995979   30.148037
H   11.887440   37.605259    1.355431
H   26.828749   80.066307   37.126846
H   46.301090   25.319935   81.953270
H   55.439678   39.276485    1.494329
H   26.043533   60.033276   69.321396
H   12.845395   56.077908   53.532227
H    3.946584   88.933914   89.510216
H   19.130709   28.947229    3.318895
H   70.619202   50.382706   92.135826
H   75.782288   62.848503    4.733723
H   81.355522   66.666107   68.507515
H   78.857872   53.099594   29.417343
H   79.249901   90.534599   20.379385
H   87.185417    1.714147   14.531778
H   60.805763   57.544926   27.875200
H   47.259472   78.864265   34.746742
H   55.940220    4.974293   44.092484
H   29.979534   58.820965   44.152187
H   24.700851   15.312302    6.417935
H   11.904988   63.961681    7.035388
H   74.442657   14.062280   88.260147
H   49.975784   28.853882   62.696602
H   76.968025   64.651665   83.620247
H   36.893116   29.894314   28.281195
H   56.243526   96.174713   73.342270
H   67.278008   26.072117   41.402870
H   27.504721   31.921383   78.279068
H   43.533688   62.211075   54.237522
H    8.875447   56.594589   69.008102
H   10.476637   22.455200   98.397469
H   74.901535    5.945969   35.213520
H   34.629730   65.255997    1.059564
H   93.662582   12.451450   90.005539
H    1.134155   87.325005   63.310783
H   20.326353   69.614815   11.571621
H   96.350548   42.022476    5.571723
H   53.941414   33.706375   61.410767
H   64.557968   74.989120    8.392869
H   96.178253   27.228653   91.870132
H   79.456322    1.902299   28.275604
H   48.327187   42.213341   25.050276
H   35.377747   54.695049    2.731674
H   96.615273   38.445271   50.738705
H   81.390556   51.023556   70.779831
H   75.046806   21.941025   69.883644
H   60.741684   44.253593   55.404270
H   31.946690   52.017372    1.568846
H   19.587755   90.165169   61.223911
H   67.617088   48.970055   62.260357
H    1.970764   14.498470   59.775280
H   28.496132   44.507420   98.632271
H   65.882614   28.753260    7.234852
H   27.478186   12.507143   90.748703
H   73.946686   19.870312   92.394348
H   35.597931   45.685307   18.692383
H   65.245338   53.274342   18.547031
H   95.749222    4.760184   14.287447
H   12.388937   30.077551   84.590897
H   47.101551   44.730423   80.341858
H   22.668007    8.542565   37.233643
H   55.467590   18.750584   56.397102
H   48.581734   44.069077   40.287910
H   49.526554   11.877303   47.132038
H   72.297371   97.754387   27.214855
H   57.194717   99.129387   94.937675
H   57.281197   89.885292   27.571049
H   59.527046    6.118921   26.964460
H   27.173738   77.588577   35.087841
H   83.983849    1.297889   34.992096
H   90.224785   29.938635   24.871740
H   54.670837   17.902811   32.010769
H   55.260456   42.832829   17.856743
H    0.281436   92.690971   63.471764
H   56.490349   72.099281   32.760551
H    7.148103   16.893280   54.803154
H    5.043947   37.182209   38.601711
H   44.023479   76.724922   90.269638
