100
TIME:    5.733, STEP:  5733
H   29.622610   96.276939   93.897293
H   42.143044   15.525840   39.589550
H   78.306015   86.359299   56.049328
H   82.438873   96.449799   25.917248
H   43.821091   32.282654   10.260529
H   39.118504   94.997108   46.504810
H   52.502705   48.458012   38.781147
H   69.283798   84.579239   81.809029
H   12.699852   35.088898   39.215019
H   18.173063   98.700752   32.187870
H   66.985336   96.922455   87.517830
H   37.028793   11.056177   84.848152
H   78.232315   14.904522   55.361992
H   71.217033   87.405159   93.523293
H   50.233177   57.932724   75.193298
H   71.012222   10.299939   57.152069
H   63.093361   61.162792   95.285950
H   23.664259   15.870304    0.790975
H   34.561253   18.858950   65.397049
H   38.059494   84.066200    6.661879
H   24.072365   85.479004    1.641273
H   12.008636   51.694626   31.060349
H    9.199246   47.996101   68.322418
H   86.379768    5.411593   81.291168
H   24.538914   31.504288   78.879372
H   20.412073   57.178825   51.311653
H   67.716843    4.162032   13.717205
H   48.807476   24.036751   56.277344
H   35.829781   69.234619   86.170654
H   20.821857   48.948082   39.145248
H   41.685242   36.144863   55.802223
H   27.742222   94.116623   68.531532
H   74.182732   49.028496   14.270871
H   20.334511   48.327446   30.228197
H   38.265198   25.549067   73.827103
H   70.997543   34.462273    1.401990
H   29.668633   94.579712   60.203289
H   27.037426   54.039021   27.003597
H    3.079101   56.504204   88.742271
H   23.209257   75.479530   89.094994
H   43.441345   52.894402   77.412697
H   17.068142   64.085098   72.638023
H   60.622524   97.879044   15.574988
H   13.273008    8.871176   41.278221
H   59.359531    5.698430   46.698956
H    4.121932   72.265030    6.452128
H   86.523727   36.618607   80.496925
H   56.545589   54.418015   23.303442
H   32.611168   57.641823   15.781808
H   46.116062   17.991278   82.690475
H   43.107937   16.159315   13.862121
H   83.745934   31.759552   97.700142
H   27.791576   55.250610   69.906548
H   43.927383   13.661941   84.798363
H   84.324699   61.018597   49.110653
H    0.736179    6.503163   97.461945
H   59.697792   24.123695    1.243361
H   99.164948   35.476891   65.886459
H   42.425842   81.002174   71.358498
H   80.699615   68.446533    0.550435
H   21.342697   11.961432   67.405052
H   95.442543   74.580124   35.954361
H   63.275166   16.073252   40.341431
H   36.714302   72.993210   71.490952
H   59.877182    2.958508   29.458731
H   49.158653   57.268639   85.163033
H   27.599522   46.566227   43.852005
H   84.348137   45.414097   40.273151
H   42.634739   37.849510    0.667820
H   46.534370   36.495270   89.661072
H   39.984718    5.327322   93.376320
H    1.255608   61.257858   76.365952
H   33.189560   34.728340   14.752670
H    4.005848   86.577293   62.518059
H   38.582142   36.813953   35.998795
H   61.193115   75.005180   10.171799
H   87.474266   29.647417   92.439110
H    1.327094   75.854378   31.051867
H   36.430843   36.679096   81.646187
H   18.373226   96.715523   27.017986
H   23.057863   88.592178   22.636877
H   71.488586   81.650162    7.375211
H   80.500191    2.995159   75.925995
H   44.570732    2.744009   39.795788
H   73.179512   90.282158   92.002426
H   19.344814   19.635975   39.900223
H   50.048836   86.516975   96.914993
H   48.231407   46.313496   36.135460
H   74.659042   74.968086   81.302254
H   59.465305   73.405807   29.158823
H   58.640648   82.996719   54.532269
H    2.482843   26.655455   42.762390
H   52.949783   99.536476   62.346272
H    1.340489   60.987621   13.366364
H   57.471703   36.202610   47.823795
H   67.443878   69.341766   71.331970
H    7.544056   96.685997    7.479117
H   27.211313   70.125885   63.789108
H   35.606049   61.563007   64.839348
H   95.310471   31.517136   45.463009
