100
TIME:    4.712, STEP:  4712
H   98.669594   89.906990   94.832047
H   70.341438   60.201706   75.213257
H   60.749672   12.904269   68.034920
H   82.267502   38.516655   81.882698
H   52.966095   50.445084   37.942154
H   54.954784   96.103233   45.391567
H    6.015110   79.514816   58.937542
H   49.532387   96.250397   75.554207
H   37.797981   33.253891    3.482639
H   46.073235   84.040703   92.205627
H   61.956268   55.840046   85.865646
H   75.997826   59.878838   57.523598
H   43.384598   76.646065   56.813965
H   21.770527   90.552162   15.824878
H   37.816536   49.132385   24.270287
H   12.064484   99.600174   41.904236
H   45.196175   93.633469    2.340299
H    1.831014   65.546165   36.183544
H   18.659386   76.028412   11.609575
H   65.565056    5.751429   37.147469
H   84.659966   87.122711   29.352814
H   14.124374   50.339233   18.007919
H   22.832039   56.299828   97.533463
H   81.245621   93.194702   57.119789
H   61.055817   12.473846   71.339027
H   25.066366   87.357544   47.322773
H   55.758568   46.605526   93.459877
H   34.957127   76.379944   22.524958
H   13.629178   76.601585   34.432655
H   81.672592   74.217583   57.978951
H    1.500916   44.589466   36.580498
H   63.275768   22.325256   63.050606
H    2.263586   23.729734   22.291128
H   77.194519   41.895996   73.242271
H   63.643753    2.728935   11.656982
H   82.243942   54.492847    4.613341
H   31.741446   31.973125   79.752548
H   69.234718   72.722664   54.953259
H   46.178539   78.751335   87.684723
H   19.376051   71.062309    8.764284
H   13.220058   17.864515   53.358379
H    8.133003   23.334555   24.174150
H   51.828053   91.756409   41.826416
H   78.466080   91.736420   41.449806
H   47.924198   45.979012   59.329243
H   17.296444   52.791004    2.302646
H   78.547165   81.092125   70.697594
H   56.491062   43.902039   60.129784
H    2.768995   42.201443   56.512146
H   24.702419    2.451002   54.099815
H   43.185123   14.730251    3.098824
H   34.126106   26.500620   64.729309
H    6.612422   49.330505   29.203016
H   67.570030   30.323647   39.743248
H   65.618530   71.537849   40.425236
H   99.461990    7.577156   32.219208
H   94.972824   53.584007    4.137801
H   75.190323   31.897753   92.184189
H   61.900955   37.863129   49.740807
H   48.074657   89.967712   29.590096
H   56.937378   59.440594   47.010674
H   31.676573   84.083450   82.151489
H   93.957863   85.744431   10.354485
H   66.605385   67.431427   99.206390
H   19.349047   84.504669   34.377522
H   11.879898    8.025446   24.793539
H    9.515669   11.269467   94.556931
H   54.875725   87.021133   91.463448
H   91.746964   11.212051   64.705688
H   25.851793   85.142578   91.811005
H   72.405083   74.795380    5.623045
H   85.441071   95.142670    1.611903
H   99.759583   85.231667   40.933556
H   26.478909   51.195560   23.182213
H   89.355843   35.357296   58.599697
H   37.053108    9.567301   78.871140
H   94.773788   18.141148   74.382790
H   53.358654   42.614544   74.666817
H   87.470619   39.678097   70.257774
H   68.439789   52.328983   14.978104
H    3.078528   78.029465   61.614025
H   94.871773   75.000504   92.762596
H   15.918512   85.920593   78.691254
H   74.327179   15.374928   33.048500
H   22.894106   54.147545   90.976936
H   42.846073   82.134743   68.998764
H   81.858543   60.752136   48.229919
H   31.801516   28.040113   46.740456
H   53.471298   31.815008   89.652718
H   49.734959   15.410255   92.660461
H   16.857170   27.866661   32.970623
H   26.939154   49.866547   23.311708
H   87.501930   68.903511   83.390732
H    2.659825   99.049820   44.524242
H   75.122963   27.657295   24.362751
H   83.113449    9.660185   24.068230
H   88.586205   38.092541   66.197495
H   24.161718   56.357544   80.633553
H   84.244385   57.161877   50.358276
H   31.891390   57.713673   43.818638
