100
TIME:    0.150, STEP:   150
H    7.178815    8.265573   99.008682
H   97.097664   12.877510   87.462494
H   82.341644   84.695610   21.578621
H   81.501785   26.470671   31.940901
H   93.827515   84.780685   61.638115
H   25.690323    1.050395   93.600243
H   45.108517   71.467278    2.182704
H    8.096594    1.579631   94.421120
H   49.940712   71.871475   90.644936
H   70.741341   18.540710   13.562708
H   86.302399   72.278122   25.301041
H   50.116665   31.209236   82.252129
H   33.721138   52.632217   10.220471
H   47.654896    4.614782   68.656105
H   82.327339   56.622993   43.562466
H   95.492279   98.616829   20.588314
H   12.006437   91.916847   87.012047
H    4.350152   87.406036   94.345993
H   47.600037   84.645966   71.264069
H   88.589027    2.387094   26.421320
H   55.375336   41.284752   53.170227
H   76.730751   44.297920    6.482941
H   83.741310   93.402275   28.059212
H    5.104924   38.480778   95.934006
H   24.218065   74.277412   37.665970
H   45.968037   23.143112   75.111748
H   49.144520   36.241688    2.942875
H   19.884270   63.440670   71.734085
H   14.432830   62.701107   50.081390
H    6.745655   87.127182   95.313591
H   22.002321   35.493568   97.542290
H   75.228485   48.366005   85.377846
H   80.924011   57.507393   11.310140
H   84.439888   59.976074   65.432060
H   77.043343   47.581375   33.862328
H   85.596855   96.268913   20.128202
H   94.186226   99.041786   20.284508
H   57.788788   56.208813   33.026394
H   43.977390   77.305931   27.749832
H   49.064724   98.140266   49.836266
H   24.990971   61.325550   45.872593
H   18.140030   18.588785    9.847468
H   12.533641   64.399445   12.308146
H   69.781021   15.285611   95.397964
H   43.643867   25.973637   68.943420
H   76.035698   66.023979   83.906517
H   37.663929   33.832478   28.904974
H   56.247425   96.926590   77.859100
H   69.412224   20.026470   38.490601
H   29.035765   33.032490   73.172989
H   43.530346   55.162926   55.003323
H   12.422914   49.820457   64.216141
H   11.990833   22.878479   94.157997
H   73.211761    4.754801   38.434895
H   28.818001   71.655304    1.678992
H   93.753922   12.374592   87.520447
H    5.761953   85.218636   70.253670
H   14.890312   62.720940    9.691233
H    2.108066   45.106842   99.967453
H   49.122162   39.317604   59.338371
H   69.162796   71.593979    2.701301
H   93.587341   26.549179   88.567444
H   84.407570   96.924232   23.267548
H   53.340256   42.610443   23.068106
H   38.275536   48.864384    9.530034
H   92.130745   34.816212   55.055035
H   75.533714   53.547077   74.304184
H   70.004219   26.116169   73.373466
H   64.380150   39.008278   50.825619
H   33.425392   55.689316    1.415338
H   17.269468   85.198326   60.348392
H   61.597843   46.547340   67.604988
H   97.211014   10.887791   57.903385
H   26.889343   39.887554   94.293663
H   69.402512   28.857130   12.768815
H   29.204161   17.185766   85.836441
H   80.574341   13.543129   93.686462
H   39.027603   40.912281   22.723835
H   68.744072   53.061031   19.361008
H   92.169174    0.784404    7.998554
H   13.817364   30.833048   88.954010
H   52.578556   45.207169   74.237732
H   27.287037    9.761024   44.186554
H   60.489571   24.997288   49.729347
H   45.026749   39.502121   33.211357
H   47.844578   14.560390   52.200802
H   77.172874   92.446693   30.695766
H   58.369873   93.284798   94.179115
H   58.796089   85.820702   26.973724
H   53.073158    3.115253   29.574030
H   30.161196   81.530640   36.629467
H   89.385109    6.787984   36.382790
H   94.908699   32.126022   30.519449
H   61.726784   22.330809   36.932499
H   53.998417   36.293728   19.533985
H    6.311000   89.808220   59.701241
H   50.695885   76.288628   28.562294
H    7.416063   17.514832   53.635239
H    1.566517   37.496883   32.487003
H   48.557018   74.850243   83.238754
