100
TIME:    2.136, STEP:  2136
H   72.873444   26.139145   97.190445
H   41.853554   20.554892   12.738218
H   16.470739   27.576023   98.261726
H   81.835129   44.647545   23.081345
H   76.039093   43.967335    7.789503
H   94.894783   98.894005   90.280907
H   41.022457    5.569702   57.490837
H   52.000908   73.392456   12.072996
H    1.120993   80.925644   65.634819
H   16.469126   47.053154   91.332481
H    1.569515   52.189045   33.999386
H   74.316498   30.757128   40.885811
H    7.392007   32.476555   12.828228
H   49.319176   98.492104   19.790287
H    6.481259   79.231232   48.097496
H   15.640705   24.906868   55.735123
H   52.336243   23.254097   67.830658
H   46.789963   90.826820   25.494690
H   78.532341   67.962997   75.894470
H   34.970673   60.451336   61.761452
H   37.523361   43.572224   99.269958
H   67.160751   46.919556   37.378128
H   57.225349   77.250267   71.236618
H   20.584007   62.299686   48.436813
H   53.187981   16.770119   52.321701
H   36.864857   63.960140   88.964821
H   77.889656   53.687511   42.352924
H   52.311867   56.140972   37.376354
H   57.616104   42.886360   56.202171
H   82.897438   37.974167   53.194271
H    0.125937   13.591742   40.389729
H    0.625659   93.498070    1.523865
H   20.814255   12.202534   90.224701
H   68.352257   77.971146   81.765152
H   27.677536   97.454773   54.794785
H   58.271557   52.278820   13.297013
H   84.669037   26.311762   76.773804
H   75.705315   19.859219   73.172249
H   54.913269   34.875610   37.317604
H   62.005177   12.217767    6.089792
H   89.269493   29.475065   92.667770
H   39.649689    7.721583    3.152929
H   29.639456   76.308899   55.758034
H   42.960762   48.570702   89.580734
H   71.372581   47.614025   38.894333
H   50.530209    3.657703   91.843483
H   58.416721   41.001129   45.959389
H   56.353489   17.375475    0.741534
H   27.467649   55.544994   59.270134
H   70.686119   63.260685   34.269810
H   43.381657   63.426537   75.938492
H    8.938780   65.535217   33.837666
H   53.188690   34.393982   78.814812
H   27.228542   72.358192   26.071711
H   70.714081   45.758450   18.531080
H   96.238846   10.287115   19.912323
H   31.664850   27.913857   59.138832
H   67.005951   75.168655   58.537430
H   58.737579   29.020433   47.501839
H   18.065372   91.967468    2.857514
H   94.440811   79.237373   47.855762
H   23.101299    8.062140   98.705933
H   19.115986   61.494179   87.020187
H   89.714661   53.413803   69.150887
H   17.102852   90.245178   94.482544
H   70.127419   36.086067   72.482338
H   16.193262   22.210409   70.188309
H   32.817772   39.697815   68.315750
H   63.362076   96.306999   26.266045
H   73.657532   55.578873   97.235321
H   54.205086   50.066414   36.529140
H   97.844666   80.635315   13.009199
H   67.720428   12.651974    6.977589
H   83.183037   14.208821   76.259727
H   65.154930   31.682974   63.321270
H   76.156212   44.470566   52.203144
H   60.890823   41.412788   28.825705
H   32.333492   11.052423   32.403332
H   63.939522   47.244625   41.509247
H   94.771797   92.622772   36.902809
H   52.681973   51.379559    7.652764
H    1.588913   58.177261    8.166224
H   52.947659   42.909180   33.343235
H   97.106941   94.941872   68.329865
H   48.324310   15.275452   40.691132
H    2.128124   87.513649   90.113472
H    9.813345   48.048325   25.396147
H   90.340546   34.281097   73.534920
H    0.009468   75.243248   10.724459
H   77.487808   21.393936    0.575853
H   11.436584   88.769424   78.570145
H   36.330601   56.151844   74.221367
H   22.333649   91.634872   84.161758
H   53.680988   42.797131   70.837074
H   19.661312   58.400642   65.169670
H   70.346420   11.383354   57.121796
H   93.057022   90.261299   14.346197
H   14.707801   34.424438   21.859123
H    6.959278   46.057751   66.126907
H   71.894150   23.837971   91.958160
