100
TIME:    2.507, STEP:  2507
H   47.783844   92.116722   96.850784
H   31.533531   40.670486   36.140736
H   22.847868   54.267456   93.908409
H   81.897400   29.362570    2.745198
H   72.716080   73.704620   97.730438
H   89.143196   98.492073   27.022207
H   21.578957   30.622246   86.503517
H   22.841042    5.489988   78.009941
H   92.001091   45.255615   42.280514
H    6.331671   52.380165    5.859666
H   67.059998   67.117126   98.262863
H   60.157539   49.353546   14.478136
H   83.791817   10.030458   75.953087
H   30.949196   97.348579   48.024578
H   10.994381   46.091675   30.262621
H    0.722668   92.457611   24.938898
H   22.508377   47.788918    1.609824
H   54.718208   72.785179   12.631458
H   84.312233   83.525116   95.441940
H   24.976158   52.574039   87.020882
H   15.507690    6.636972   89.199020
H    2.728882   47.412064    5.784052
H   52.271965   74.232948   60.622223
H   86.114029   66.749237   20.881844
H   39.918571   87.345795   55.058800
H   35.163723   52.907017   54.190033
H   45.897682   38.264088   49.715069
H   21.008810   73.458000   49.640934
H   65.683044   76.546730   38.664360
H   97.123558   28.792007   82.688133
H   14.721620   46.862286   11.033667
H   24.050545   83.245979   67.178520
H   46.947704   85.058525   23.647314
H   84.027596   43.971115   66.135101
H   18.454334   69.410126   77.386726
H   90.528000   81.422844   12.021871
H   20.253265   12.723921    6.007136
H   60.370308   13.068836   99.354424
H   39.252083   26.792601    1.365678
H   27.062387   77.486717   35.279537
H   63.913837   42.204128    1.408666
H    6.306317   24.373100   20.582197
H   32.835094   78.533676   82.556389
H   19.270193   54.789322   25.855482
H   39.191921   32.977482   70.641701
H   45.743824   10.733967   93.349312
H   61.317989   61.176971   49.522995
H   56.373302   21.195242   23.696846
H   38.311317   24.819859   44.469421
H   78.464348   68.905083    8.322567
H   43.353352   27.609148   79.850250
H   26.967684   31.107944    9.481167
H   60.884834   36.545166   57.268120
H   18.637959   66.306572   42.442841
H   41.178398   78.282547   21.678602
H   96.703049    9.897213    7.282608
H   55.183521   17.208885   94.423912
H   39.380219   40.132660   48.981644
H   87.998833   44.696041   19.019110
H   93.583221   20.484007   92.305550
H   17.844030   61.982944   18.930828
H    9.935204    4.608215   81.921036
H   44.281284   36.195122   61.568283
H   15.190142   55.431953   59.078564
H   31.828556   60.615124   29.032881
H   47.336189   17.642494   94.418755
H   86.426918   35.036510   88.099747
H    7.190132   60.915283   86.051697
H   81.851036   69.649300    2.996848
H   81.175354   74.238838   96.454102
H   42.424522   24.823565   32.076756
H   67.252563   68.322617   40.172569
H   43.530930   94.300926   97.465080
H   75.019859   90.731445   54.210091
H   83.043724   32.211430   91.445175
H   84.925117   68.249138   27.240646
H   94.574097    9.256418   35.387501
H   49.763744   86.794258   52.893360
H   81.732071   46.154881   45.650276
H   76.577309   72.418625    4.940953
H   59.942219   55.217724   29.825794
H   29.426567   60.600174   77.143532
H   76.419540   49.102325   68.679260
H   22.628948   26.688814   34.443054
H   30.259888   92.069534    4.726953
H   93.590698    1.139831   15.877084
H   34.591591   21.073608   43.086807
H   96.312912    4.578047   69.674110
H    7.709509   54.586220    7.689413
H   44.686245    6.129021   13.837632
H   26.619415    8.803014   86.404984
H   63.783672   84.050102   81.291969
H   46.137623    2.752605   12.863401
H   89.538643   65.302315   95.853081
H   13.245972   25.167679   73.695152
H    0.989482   96.733223   37.959274
H   63.608444   11.552009   93.009468
H   16.069944   37.583282   15.922148
H   89.285881   47.656986   35.050598
H   94.934464   14.308949   56.225861
