100
TIME:    2.362, STEP:  2362
H   57.589752    5.413935   96.983536
H   35.566963   32.808281   26.994162
H   20.355459   43.835403   95.609840
H   81.873062   35.336632   10.693335
H   74.014832   62.082233    1.661974
H   91.391121   98.649162   12.662306
H   29.178425   20.830719   75.164330
H   34.237755   92.945374   91.322701
H   95.565468   59.196732   51.408283
H   10.293749   50.298180    0.181325
H   80.547546   61.282703   12.230032
H   65.691833   42.085403   24.799009
H   93.015831   18.803307   90.365471
H   38.128838   97.795509   36.989613
H    9.230446   59.043793   37.233040
H    6.553116    5.139907   36.975357
H   34.166168   38.199837   88.407776
H   51.619568   79.836494   17.658867
H   82.053246   77.442886   87.802094
H   28.882370   55.652767   77.148598
H   24.112198   21.072575   93.135101
H   88.827591   47.219574   18.132126
H   54.207924   75.412224   64.770706
H   99.586090   65.010193   31.651306
H   45.104729   98.846497   53.989044
H   35.828587   57.226971   67.780769
H   58.401764   44.292110   46.837681
H   33.243462   66.689888   44.847500
H   62.530197   63.391060   45.518761
H   91.563484   32.380722   71.160881
H    9.017179   33.859280   22.507145
H   14.895151   87.252861   80.601906
H   36.733585   95.667580   10.584569
H   77.901115   57.259537   72.243881
H   22.059090   80.370972   68.556541
H   77.921036   70.032768   12.520242
H    6.345907   18.034533   94.581787
H   66.363365   15.722759   89.121498
H   45.373032   29.951532   15.416922
H   40.719395   91.060555   23.871050
H   73.823723   37.229267   97.992233
H   19.338104   17.864960   13.770298
H   31.586126   77.664154   72.082298
H   28.529055   52.358864   11.678180
H   51.769016   38.697964   58.233864
H   47.614513    7.968311   92.760780
H   60.184071   53.291534   48.130211
H   56.365559   19.702341   14.725060
H   34.073227   36.828335   50.254066
H   75.424339   66.699196   18.463673
H   43.364414   41.607964   78.321396
H   19.921347   44.563374   19.000553
H   57.876907   35.704407   65.689873
H   21.995464   68.671761   36.044220
H   52.722244   65.571594   20.448439
H   96.521622   10.049601   12.218750
H   45.991589   21.392769   80.633247
H   50.177338   53.825974   52.716385
H   76.562294   38.569561   30.150873
H    3.152085    9.338415   96.429695
H    8.697123   68.726387   30.235722
H   15.080982    5.958132   88.481171
H   34.445507   46.082893   71.515793
H    5.233190   54.643188   63.015751
H   26.073227   72.195801   15.529290
H   56.243813   24.850899   85.845222
H   98.060371   30.023817   81.099319
H   17.206474   52.622742   79.119858
H   74.624931   80.068077   12.091161
H   78.237122   66.946358   96.759430
H   47.028786   34.689613   33.816906
H   79.209045   73.134857   29.555899
H   52.985046    1.473705    1.182460
H   78.210320   99.906784   62.827873
H   76.052147   32.004559   80.453354
H   81.497917   58.955933   36.997044
H   81.409576   21.824110   32.823185
H   42.951382   96.274925   44.885128
H   74.778107   46.580791   44.031815
H   83.688362   80.315125   17.432655
H   57.104656   53.717632   21.159889
H   18.546478   59.653214   89.268166
H   67.246414   46.681824   54.868687
H   12.653874   14.280977   47.687225
H   37.320190    1.138791   18.782898
H   96.927185   95.814156    5.807639
H   24.907370   31.616287   36.172668
H   93.978699   16.186890   71.183052
H    4.700061   62.659721    8.875639
H   57.506718   12.095093    8.654517
H   20.685425    0.973540   83.342850
H   53.054035   73.146782   78.528526
H   36.833958   98.407700    1.645626
H   75.524513   56.506588   86.075935
H   15.753315   38.156303   70.363091
H   89.013077    2.459103   45.448669
H   75.117996    3.230974    1.348510
H   15.537593   36.348694   18.242523
H   96.193382   47.031948   47.196251
H   85.929489   18.033306   70.191315
