100
TIME:    3.483, STEP:  3483
H   81.781403    2.612550   95.957230
H    4.383688   93.587097   97.706650
H   39.624359   24.484688   82.456017
H   82.061218   89.149895   49.248737
H   63.974136   51.935314   71.266327
H   74.012337   97.434700   23.678911
H   70.424965   96.525673   62.828072
H   46.129364   89.925949   88.396309
H   68.009148   51.417175   80.844963
H   79.659950   66.394081   44.081413
H   76.274857    6.388666    4.249651
H   22.903755   98.275665   45.004951
H   21.709114   50.981094   78.946770
H   82.623390   94.340279   22.297672
H   22.867489   58.911636   83.348091
H   61.480667    7.093159   43.922218
H   44.025063   12.344846   90.459579
H   75.571129   25.322533   78.794128
H   99.517555   24.469088   46.859341
H   98.682945   31.850988   53.471458
H   57.590561    9.473145   62.705490
H   96.298950   48.707718   22.668625
H   39.240959   66.295204   32.698639
H   95.433037   78.454803   48.396244
H    5.012662    9.939377   62.262550
H   30.687410   23.828211   62.708412
H   61.736858   97.692032   69.080910
H   38.656460   19.014359   81.901573
H   86.904968   65.096970   92.529610
H   34.546173    4.635369   60.277008
H   53.134480   34.383068   33.815071
H   85.676033   56.277657   76.825310
H   15.694963   13.649570   11.573102
H   25.266712   54.526558   25.017326
H   94.192474   95.631889   36.818405
H   75.390450   58.093998    8.664201
H   13.864369   76.980453   82.912163
H   20.033760   95.207573   68.226006
H   98.052704    5.529722    6.783940
H   35.133961   86.116516   12.069048
H   97.213928   75.692688   24.403669
H   18.588982   68.178909   66.435516
H   41.241955   84.386459   53.053669
H   56.945786   71.145569   21.283556
H   54.530491   94.470917   54.160702
H   33.152149   29.349689   97.310738
H   68.945602   14.255006   58.897873
H   56.425426   31.244009   84.086250
H   66.838791   43.987007    5.534806
H   98.926750   83.752983   40.058430
H   43.278889   33.382736   90.141022
H   74.400146   40.542885   45.410122
H   81.124992   42.204346    0.581563
H   96.037163   50.380035   85.512177
H   63.471664   63.825882   29.971319
H   97.924240    8.870733   74.057266
H   17.059542   89.046028   87.249657
H   66.704826   47.961441   23.841763
H   64.972404   85.933594   44.091625
H   29.176849   95.502243   64.545784
H   79.410805   16.597126   42.833294
H   75.296135   95.522812   37.760117
H   10.520734   69.609428   94.630699
H   82.211235   60.741158   32.577221
H   70.570320   82.662819   19.925840
H   87.379066   69.122597   52.125946
H    8.120605   68.776703   35.222271
H   39.771233   16.733679   32.710140
H   30.494370   99.520172   41.785358
H    0.952500   23.327005   94.398926
H   11.430870   58.416588   20.367443
H   86.777817   35.931259   11.630267
H   79.893158   46.021961   72.445549
H   53.539562   28.967880   96.206596
H   30.101416   33.603886   65.433022
H    7.995902   30.799913   61.566563
H   83.189034   24.663013   52.647999
H   95.617996   22.975302    6.791918
H   28.535421   43.288059   56.544197
H   28.712563   19.261639   20.857529
H   79.036087   65.314896   88.159882
H    2.657106   66.974197   95.530762
H   38.168308   65.394806   61.638432
H   89.774994   10.206623   45.298164
H   82.735809   31.020832   10.114595
H   71.132690   36.990540   83.653214
H   99.776405   50.110451   89.626114
H   12.021734   26.436783   59.520660
H   27.966408    0.244870   99.704353
H   58.395359   65.977493   48.725319
H   66.561310   61.502041    7.016397
H   36.000275   57.446167   99.892799
H    8.721528   32.024391   88.350182
H   83.873024   24.501945   61.658112
H   96.370171   37.743946   96.123375
H   81.603088   58.191231   87.547310
H   86.138428   67.562843   36.879341
H   19.651609   45.893341    0.305393
H   42.791252   51.864140   53.299873
H   55.552303   89.254433   62.212227
