100
TIME:    9.969, STEP:  9969
H   43.158844    7.817283   90.019119
H   25.156631   45.070400    6.681677
H   51.128796   91.114113    6.318521
H   83.149872   21.928076   93.727310
H    5.868498   71.816299   95.406120
H   73.430786   90.407936   66.010155
H   30.495193   34.493034   70.041962
H   36.342560   51.046398   92.872871
H    8.570824   27.813187   72.575447
H    2.467589   59.525074   98.047401
H   72.962860   67.365463   79.481880
H   75.353416   23.384201   83.325005
H    8.059546   58.577599   34.416306
H   61.476196   74.348640   15.884922
H    1.689717   79.552612   71.489281
H    0.690018   39.803818    5.526401
H   22.459450   41.342171   80.905746
H   14.248511    9.747355   53.951019
H    0.540406   96.563614   88.579926
H   23.934032   94.109833   95.068504
H   72.701630   63.773670   86.666061
H   18.118088   57.317978   70.325851
H   52.641312   13.548700   47.160912
H   92.793915   56.086395   66.690887
H   73.035995   95.568268   10.158253
H    0.599508   32.217392   52.755062
H    2.440562   28.076788   97.763412
H   91.386574   21.758930   96.293205
H   27.937542   53.557529   85.932480
H   83.249153   44.106888   75.895638
H    8.397662   15.995602   20.663544
H   95.206192   77.077255   76.383827
H   72.561317   39.102493   95.883202
H   99.315460   60.123314   51.772911
H   32.855034    4.876787   31.575308
H   39.225071   66.250687   88.086220
H   35.955978   39.449471   93.983658
H   51.953434   76.519218   25.925858
H   24.276653   64.209251   78.242455
H   24.225410   78.918655   22.374453
H   53.940704   98.244766   77.209801
H   60.080338   80.702621   88.883781
H   97.080353   23.291046   21.544132
H   42.798283   79.978493   55.448154
H   91.888550   38.531498    9.169494
H   49.449699   53.054241   23.661524
H   19.631992   66.991028   21.164667
H   56.796078   98.047470   85.402420
H   56.431335    6.822911   46.772675
H   35.031929   82.477257   86.500679
H   46.791203    7.499092   52.411804
H   89.622101   38.689873   19.632864
H   15.649776   79.812378   23.887993
H   45.830055   44.551910   71.720833
H   47.048531   32.240051   85.126389
H    6.012136    2.047303   53.258499
H   28.243393    1.894860    4.122251
H   83.743851   35.438377   56.776878
H   76.515495   59.998848   46.165165
H    1.168634   94.038040   80.068520
H   88.556305   14.966852   37.141605
H   45.098625   35.152023   44.290352
H   50.886951   27.066267   49.889511
H   27.593109   96.068344   56.483849
H   28.008953   64.636421   23.938162
H   88.938721   46.685020   35.629940
H   87.736580   93.016815   48.365856
H   91.738609   87.674751   42.778458
H   53.756973   33.477570   34.994671
H   32.490173   49.360249   80.699539
H    5.462208   17.104504   42.572243
H   52.343544   20.591209   86.769196
H   56.995132   25.202688    6.142139
H   10.755527   18.482677   10.829798
H   42.686943   42.994076   57.157856
H   61.334290   46.492664   25.142433
H   72.180611   62.959057   67.547356
H    0.333743   98.881538   65.002525
H   39.562698   24.236622   28.912340
H   10.636762   65.960548   62.082985
H    5.974954   32.416241   75.816994
H   89.361534    9.130250   52.996574
H   48.435059   73.835243   79.340439
H   36.000469   65.228226   52.902596
H   66.924591   25.299446   81.371597
H   21.853321   75.233284   34.060947
H   32.961887   78.524330   98.903465
H   16.356480    7.348372   92.220810
H   62.569828   39.113838   46.657234
H   84.945496   99.122787   80.583481
H   31.995871   11.727674   43.989159
H   15.903948   45.243256   23.475443
H   24.485493   26.634245   89.922661
H    6.752704   17.679649    5.099603
H   84.232208   56.768188   45.161964
H   17.320160    2.068014   52.537155
H   71.310051   39.778076   63.861725
H   19.034830   79.726120   78.745995
H   33.812706   79.850746   10.028721
H   58.423096   22.814854   37.394665
