100
TIME:    0.250, STEP:   250
H    0.416401   99.095131   98.917130
H   94.315987   18.299339   93.770477
H   84.059784   91.890129   20.404457
H   81.518570   22.350416   26.459562
H   92.931824   92.796127   58.926628
H   24.139648    0.941557    3.503393
H   39.867886   78.219292   10.002954
H    0.236786   10.230734   85.239906
H   47.482521   62.256912   84.350685
H   68.008492   19.976181   17.478876
H   77.000641   76.301865   15.668549
H   46.299679   36.221748   75.133904
H   27.360233   46.582108    0.281412
H   42.703419    4.306459   76.265663
H   83.543465   47.691261   38.755184
H   91.471649   89.870369   12.287495
H    3.966820   98.530006   96.116966
H    6.487050   82.543060   90.879196
H   49.157196   88.840607   76.532928
H   85.882118    0.290155   33.243523
H   49.441193   31.329155   50.456451
H   86.319374   44.429909   97.968025
H   82.406166   92.588982   25.197807
H   95.813797   39.680119   88.507553
H   20.641787   66.347420   38.404495
H   45.511799   20.161163   65.739799
H   40.521015   32.084431    4.927186
H   11.446922   68.108337   75.039139
H   16.607346   71.773979   45.354218
H   10.579997   84.652206    3.263283
H   25.936037   44.461159   89.629082
H   81.542572   45.603401   76.120338
H   87.967468   50.190804   20.318930
H   88.665047   50.811646   61.219109
H   74.557686   40.022171   39.951347
H   94.291313    4.124331   19.784117
H    3.777657   95.379738   28.164196
H   53.655945   54.378521   40.082821
H   39.481388   75.171227   18.165024
H   39.646236   88.778999   57.704460
H   18.157322   64.756660   48.229313
H    9.152603   23.077158   14.545459
H   13.394809   64.999115   19.531178
H   63.395218   16.961409    5.175613
H   34.970009   22.028095   77.500549
H   74.758537   67.903862   84.298668
H   38.719837   39.227222   29.759466
H   56.252766   97.956558   84.046539
H   72.335808   11.744762   34.501190
H   31.133085   34.554554   66.178360
H   43.525547   45.507927   56.052845
H   17.282457   40.540825   57.651070
H   14.065075   23.458313   88.350502
H   70.897003    3.123065   42.847736
H   20.856728   80.421478    2.527524
H   93.879044   12.269306   84.116211
H   12.101408   82.333199   79.764473
H    7.443825   53.277275    7.115358
H    9.994583   49.332001   92.290756
H   42.520691   47.004265   56.498985
H   75.470779   66.943100   94.904266
H   90.038147   25.618393   84.043213
H   91.190102   90.105080   16.407196
H   60.207474   43.154419   20.352804
H   42.245110   40.877171   18.842855
H   85.987556   29.844898   60.967815
H   67.510643   57.003956   79.132065
H   63.096565   31.835545   78.154045
H   69.363670   31.822914   44.553493
H   35.450996   60.719376    1.205053
H   14.093733   78.394432   59.149052
H   53.352757   43.228554   74.926155
H   90.690933    5.941654   55.339146
H   24.688263   33.558971   88.350365
H   74.224289   28.999418   20.349682
H   31.568510   23.594839   79.107315
H   89.653320    4.875790   95.456482
H   43.725784   34.373669   28.246510
H   73.536858   52.768826   20.476044
H   87.264999   95.338478   99.383545
H   15.774113   31.867975   94.930878
H   60.081699   45.860245   65.875916
H   33.614376   11.430144   53.711090
H   67.368622   33.554417   40.595436
H   40.157150   33.246307   23.517651
H   45.540501   18.235849   59.144314
H   83.851646   85.175880   35.464138
H   59.979675   85.278511   93.139992
H   60.871284   80.252769   26.155472
H   44.232216   99.000504   33.148907
H   34.253605   86.930725   38.741283
H   96.784096   14.308661   38.287849
H    1.324949   35.122086   38.255730
H   71.391884   28.396559   43.674595
H   52.269596   27.336056   21.831577
H   14.570602   85.859245   54.536140
H   42.758263   82.027458   22.811256
H    7.783133   18.366272   52.035355
H   96.802788   37.927944   24.110691
H   54.767345   72.282188   73.607407
