100
TIME:    1.174, STEP:  1174
H   37.929115   14.359447   98.071182
H   68.613289   68.398979   52.055782
H   99.935394   58.366192    9.555183
H   81.673660   84.280724   75.813225
H   84.655640   66.858803   33.872490
H    9.811417   99.936211   95.010490
H   91.441322   40.612141   82.261101
H   27.612213   90.168137    0.400532
H   24.768837   73.418045   26.187578
H   42.756966   33.240257   53.664268
H   91.052414   13.480760   26.664179
H   11.030727   82.537361    9.362719
H   68.583008   90.678612    8.443255
H   96.952385    1.457598   46.582630
H   94.780464   65.157990   94.338730
H   54.320465    9.049412   35.588364
H   29.678783   59.635483   80.245399
H   26.232086   37.609161   58.845993
H   63.545349   27.603930   25.213655
H   60.886368   80.883163   96.264061
H   94.609818   39.342255   25.380234
H   74.918571   45.649483   19.290920
H   70.069435   85.074150   98.759659
H    9.964249   50.762028   19.882599
H   87.595451   93.066780   45.224426
H   41.275883   92.628128   79.133469
H   60.844414   93.674881   23.262945
H   33.482491   11.237853    5.578370
H   36.698593   55.606327    1.677463
H   46.009228   61.783432   76.718376
H   62.283573   27.322767   16.511787
H   39.884159   20.076942   90.581032
H   53.053455   82.587090    3.560147
H   27.706230   66.132637   22.292315
H   51.590218   70.174721   96.217926
H   74.629486   76.707962   16.604765
H   92.401024   61.541847    0.972034
H   15.468451   37.466625    5.288180
H   97.940842   55.446556   29.604515
H   52.615219    2.276791   30.401617
H   55.010391   96.465584   70.003464
H   26.108757   64.549629   57.956593
H   21.353186   70.540070   86.272377
H    4.391992   32.445869   95.521736
H   54.819008   85.570633   56.572044
H   62.941265   85.309029   87.938881
H   48.476429   89.071121   37.654976
H   56.302113    7.470850   41.218380
H   99.349724   35.218399   97.641830
H   50.512325   48.618427    1.554730
H   43.455051   56.301537   65.795334
H   62.187004   54.801212   96.990036
H   33.232651   28.815979   34.685394
H   49.503857   88.049995   83.622391
H   47.298370   61.424961   10.368315
H   95.035172   11.298128   52.661072
H   70.677124   55.671761   67.644600
H   38.639832   66.017876   83.315506
H   82.867714   88.372467   21.354370
H   81.546539   18.025007   30.218224
H   33.758007   23.975548   22.861786
H   57.243591   17.017929   42.235649
H   53.865395   27.095833   53.017189
H   23.655340   48.180756   95.264748
H   78.921104   67.079704    4.893151
H   29.224495   83.910103   15.601406
H   93.375961   88.951019   23.743439
H   99.269402   84.679062   22.326590
H   15.413292   65.430176   86.601143
H   54.167580    7.191261   99.261017
H   84.751991   15.521940   48.067142
H   77.164932   12.562767   42.576584
H   30.445297   60.233807   31.645573
H    4.351291   75.087433   33.434288
H   18.775543   30.314161   90.394707
H   53.415096   82.815453   16.934673
H   73.547203   24.792276   11.807564
H   87.136978   73.956703   79.276169
H   17.824877   50.063328   30.778976
H   41.950424   45.016052   19.779907
H   33.856213   41.427227   50.155575
H   29.408989   51.894669   88.607986
H   92.079765   26.851580   41.717503
H   30.930548   12.622293   56.198097
H   95.164856   75.450409   33.946236
H   24.271084   52.178951   23.309547
H   45.563530   17.993568   79.523895
H   74.854248   11.301298   83.538490
H   80.046089   28.805296   18.594818
H   62.540543   60.975739   66.183144
H   72.067451   36.824444   58.254467
H   65.151070   83.802330   55.890602
H   60.609947   62.805710    9.738514
H   60.700249   84.444817    5.975898
H   36.295292   44.570305   43.063164
H   90.889145   49.370720    6.810276
H   69.415787   35.053753   69.671234
H   11.175677   26.233582   37.252426
H   52.785332   41.910946   46.710201
H   12.150803   48.548779   84.612740
