100
TIME:    6.314, STEP:  6314
H   90.332596   42.996147   93.365372
H   26.097565   47.011135   76.224159
H   88.297272   28.157986   49.227436
H   82.536392   72.513336   94.070557
H   38.617126   78.852371   94.507568
H   30.106869   94.367668    4.042491
H   22.053913   87.688972   84.216103
H   23.618347   34.843029   28.463223
H   98.417702   79.227982    2.642365
H    2.301859    7.043553   54.936375
H   12.942123   20.299795   31.553387
H   14.852104   40.178684   43.491264
H   41.157394   79.770164   97.630791
H   42.448952   85.614357   37.738583
H   57.295845    6.035217   47.261730
H   47.652008   59.483498    8.923633
H   16.372932   99.593788   48.176674
H   36.089054   87.599945   80.648964
H   43.608349   43.234245   96.009125
H   22.407707   71.725624   46.219078
H   89.595016   27.638630   85.870049
H   67.709671   52.465912   81.582870
H    1.441339   43.270866   51.699875
H   32.396015   12.362032   38.140820
H    3.760085   85.427994   83.170204
H   17.763548   40.002197   96.677406
H   17.615246   80.012283   25.246382
H   99.785385   51.155876   75.481491
H   48.462914   21.947426   58.705780
H   43.099384   34.568474   85.333755
H   64.553322   88.244194    9.835350
H   64.427063   78.061462   14.745415
H   15.106440    6.520422   66.611938
H   44.883736   95.082382    5.753113
H   23.818268   81.611671    9.199014
H   21.502806   79.968147   99.575020
H   85.393623   73.302856    5.983861
H    3.024544   43.405025   68.001869
H   78.557068   43.844475   32.438393
H   68.484375   21.087517   34.806599
H    3.734933   72.830116   91.100807
H   68.104431   66.363495    2.301304
H   65.625580    1.363620   57.540009
H   76.172775   18.623068   98.085655
H    8.963398   82.773483   96.415878
H   96.623253   83.346725    8.812529
H   91.062790   68.214737   86.073235
H   56.576618   60.402130   59.252460
H   49.592758    9.525101   92.605545
H   58.304562   26.835257   42.057137
H   43.068043   60.067627   19.986252
H   11.982195   77.847794   59.561378
H   39.844028   58.619446   36.161343
H   30.474205    4.181550   10.436084
H   38.065269   11.933379   54.053089
H    1.459839    5.892008   77.683334
H   96.532829    7.358735   56.501411
H   55.902008   80.607979   50.921738
H   88.248779    5.551097   26.756889
H   42.359451   13.102551   84.025414
H   57.992725   84.941299   22.107182
H   74.821724   69.172256    9.664414
H    2.717390   76.426918    0.500519
H   76.611435   76.158142   55.717152
H   82.936768   56.556339   83.564110
H   13.467880   28.385307   19.516798
H   80.984238   66.651276   71.901993
H   44.214668   78.641457   68.048309
H   71.592262   96.102570   64.231140
H   58.303131   65.719658   88.437653
H   21.534653   65.796555   86.408150
H   53.348293   41.975708   18.902943
H   95.306107    5.991287   99.854553
H   91.214439   49.805508   27.996618
H   66.592644   37.642864   80.041885
H   74.926460   12.240520   71.076355
H   40.229092   79.308250    2.721253
H   28.623531   37.863274   63.140022
H   64.290276   34.972515   88.126762
H   89.880905   65.066200   76.964470
H   34.427681   94.602890   57.361881
H   15.094873   85.418076   58.774380
H   17.249054   12.710738   31.256882
H   84.542473   52.461937   86.730827
H   44.890160   53.941833   35.680817
H    5.971509   40.978035   80.246460
H   88.852501   44.273552   24.619360
H   57.575493   99.820679   30.111450
H   86.715927   42.618401   76.550423
H    8.095859   49.502117   49.926224
H   82.417534   14.370094   66.801926
H   45.470959   70.352524   53.830788
H   90.193146   16.970028    7.275889
H   57.490208   96.236275   52.542297
H   47.427254   84.159958   61.175022
H   15.432143   46.398224   41.322739
H   61.426659   30.027140   74.065338
H   26.089846   98.876236   52.126732
H    7.928728   64.067589   16.173050
H   31.397943   16.607822   89.492668
