100
TIME:    6.912, STEP:  6912
H   49.891678   88.157448   92.817886
H    9.584038   79.415535   13.928580
H   98.580872   71.181007   42.205936
H   82.636765   47.876495   61.294056
H   33.260895   26.784620   78.292877
H   20.831554   93.719810   63.265644
H   90.712418   28.068844   30.980555
H   76.616722   86.577820   73.557533
H   83.717720   21.732895   65.002510
H   85.968239   15.631025   78.350502
H   57.317627   44.361774   73.950066
H   92.028152   70.153503    0.925868
H    2.997665   43.606182   38.210381
H   12.840473   83.771156   83.246376
H   64.559151   52.618919   18.505062
H   23.607479    7.180204   59.284668
H   68.285164   39.145535    2.614976
H   48.877399   58.501099   59.918419
H   52.920162   68.321976   27.513035
H    6.297951   59.025753   86.933739
H   54.108841   68.106659   69.637108
H   25.040512   53.259766   30.657608
H   93.457039   38.407372   34.590958
H   76.834007   19.515841   93.728043
H   82.371895   38.004135   87.586586
H   15.016598   22.334785   40.432991
H   66.050453   55.154823   37.113125
H   49.326813   79.068504   95.245712
H   61.465691   76.202797   30.437414
H   66.029892   19.768120   32.872276
H   88.086067   41.867912   62.523567
H    2.185263   61.537212   59.385597
H   57.229984   62.767479   20.484503
H   70.150185   40.279099   80.560089
H    8.935249   36.334633   45.583763
H   73.486076   26.806511   97.695320
H   42.749634   51.403442   53.103855
H   78.305977   32.459881   10.202872
H   53.316059   30.814531   74.488266
H   12.160652   65.105957   81.856674
H   62.865311   93.351692    5.189075
H   17.708405   68.708557   32.830303
H   70.771942    4.950974    0.735867
H   37.988781   28.660299   56.553673
H   57.090172   59.177799   47.588932
H   88.903709   94.752670   11.241995
H   95.734665    0.735408   91.812706
H   56.609493   66.561340   96.253342
H   67.072029   59.997112   68.753433
H   70.858154   35.938496    0.244351
H   43.026981    2.334172   26.289177
H   41.050518   22.356728   20.306679
H   52.249134   62.086853    1.429949
H   16.627388   94.425705   36.823013
H   90.450851   64.340599   59.140141
H    2.204647    5.262970   57.326004
H   34.442524   90.103401   13.376266
H   11.374139   24.134546   35.519150
H   35.411598   30.821636   80.849922
H    2.899065   59.068508   67.016869
H   95.714470   57.130173   75.481461
H   53.597542   63.606155   82.608154
H   43.316410   35.621010   59.493866
H   17.673927   79.415680   39.479649
H    6.671056    8.793915   39.253803
H   76.732422   98.657463   54.875229
H   33.006271   87.327972    0.772773
H    2.906536   12.841796   96.636169
H    1.393887   53.134094   26.723858
H   70.418663   95.794853   87.178436
H    2.544421   25.109268   79.236092
H    4.062585   22.117550   62.696815
H   56.316025   76.412567   84.524963
H   78.047417   11.959373   92.466492
H   95.426872   38.496029   25.374851
H   89.060707   50.567883   30.839876
H   94.539642   27.549419   13.326784
H   56.718655   98.761055   96.162636
H   92.969383   33.216000   94.796959
H   60.553940   32.490822   25.446098
H   46.130180    0.789656   93.103546
H   59.966698   89.296097    8.746845
H   55.075729   22.711096   88.207108
H   25.684566    3.633654   32.112705
H   15.772352   16.534897   77.711540
H   92.209641   62.945885   21.773636
H   28.791643    0.793768   53.134224
H   67.192986   51.969311   23.911179
H   99.125595    9.323492   71.659554
H   55.225758   24.897213   71.302521
H    6.890252   46.659286   79.430588
H   89.716904   15.327964   65.223534
H   28.525883   34.913860   53.520149
H   15.285068   32.515831   92.864594
H   37.088905   30.594795   74.916901
H   64.824448   22.784246   10.435234
H   13.960497   64.345215   39.674133
H   24.935564   28.465500   40.123116
H   79.441399   66.649895   66.085808
H   68.540825    1.262508   31.885540
