100
TIME:    0.142, STEP:   142
H    7.719808    8.999200   99.016006
H   97.320198   12.443764   86.957855
H   82.204193   84.120049   21.672554
H   81.500443   26.800291   32.379433
H   93.899170   84.139450   61.855034
H   25.814377    1.059102   92.808006
H   45.527767   70.927116    1.557086
H    8.725378    0.887542   95.155617
H   50.137367   72.640640   91.148476
H   70.959969   18.425873   13.249414
H   87.046539   71.956223   26.071640
H   50.422024   30.808235   82.821587
H   34.229988   53.116226   11.015592
H   48.051014    4.639448   68.047340
H   82.230049   57.337532   43.947048
H   95.813812   99.316658   21.252438
H   12.649611   91.387794   86.283653
H    4.179200   87.795074   94.623337
H   47.475464   84.310394   70.842560
H   88.805580    2.554850   25.875544
H   55.850067   42.081200   53.387329
H   75.963661   44.287361    7.164146
H   83.848122   93.467339   28.288124
H    5.848217   38.384830   96.528122
H   24.504168   74.911812   37.606888
H   46.004536   23.381668   75.861504
H   49.834400   36.574268    2.784131
H   20.559258   63.067257   71.469681
H   14.258864   61.975277   50.459564
H    6.438907   87.325180   94.677605
H   21.687624   34.776161   98.175346
H   74.723358   48.587013   86.118446
H   80.360535   58.092720   10.589437
H   84.101875   60.709229   65.769096
H   77.242195   48.186111   33.375206
H   84.901299   95.640495   20.155729
H   93.419014   99.334633   19.654076
H   58.119415   56.355236   32.461880
H   44.337070   77.476707   28.516617
H   49.818203   98.889168   49.206810
H   25.537663   61.051075   45.684055
H   18.859024   18.229715    9.471629
H   12.464747   64.351471   11.730310
H   70.291885   15.151547   94.615738
H   44.337776   26.289280   68.258850
H   76.137871   65.873589   83.875145
H   37.579456   33.400898   28.836615
H   56.246998   96.844193   77.364105
H   69.178337   20.689007   38.809753
H   28.867979   32.910725   73.732559
H   43.530712   55.935326   54.919399
H   12.034150   50.562828   64.741287
H   11.824894   22.832092   94.622597
H   73.396942    4.885340   38.081867
H   29.454903   70.954010    1.611109
H   93.743912   12.383015   87.792786
H    5.254797   85.449471   69.492805
H   15.486031   63.476433    9.897303
H    1.477142   44.768829    0.581621
H   49.650299   38.702675   59.565483
H   68.658157   71.966049    3.325034
H   93.871277   26.623642   88.929382
H   83.864967   97.469765   23.816376
H   52.790878   42.566925   23.285330
H   37.957970   49.503361    8.785008
H   92.622200   35.213917   54.582012
H   76.175560   53.270527   73.917953
H   70.556831   25.658619   72.991020
H   63.981468   39.583107   51.327389
H   33.263344   55.286911    1.432161
H   17.523527   85.742638   60.444340
H   62.257450   46.812843   67.019295
H   97.732620   11.283482   58.108524
H   27.065430   40.393841   94.769127
H   69.016769   28.845747   12.162354
H   29.015013   16.673040   86.374771
H   79.848022   14.236519   93.544861
H   38.651749   41.435352   22.282032
H   68.360649   53.084408   19.271805
H   92.561508    1.220105    8.687748
H   13.660824   30.750254   88.475861
H   51.978336   45.154922   74.906677
H   26.780842    9.627494   43.424591
H   59.939217   24.312717   50.460060
H   45.416336   40.002609   33.986870
H   48.028904   14.266353   51.645321
H   76.638573   93.028358   30.314297
H   58.241089   93.925301   94.262245
H   58.630074   86.266136   27.039185
H   53.780434    3.444420   29.288050
H   29.833803   81.098633   36.460522
H   88.793190    6.186330   36.230385
H   94.395393   31.886324   29.900522
H   60.953529   21.845549   36.393131
H   54.136723   37.010342   19.350178
H    5.650226   90.124138   60.114449
H   51.330894   75.829521   29.022377
H    7.386698   17.446716   53.763229
H    1.947605   37.462399   33.157108
H   48.060192   75.055687   84.009262
