100
TIME:    3.270, STEP:  3270
H   96.185944   22.145561   96.152237
H   10.308943   82.039413   84.270645
H   35.963097    9.161174   84.955360
H   82.025467   97.925224   60.924801
H   65.881958   34.862423   77.041794
H   77.314461   97.665459    2.584549
H   81.589134   82.143883   46.171196
H   62.870743   71.497757    7.952793
H   73.245094   71.896194   94.251717
H   85.480919   63.335716   35.739975
H   96.087601   97.818283   24.766859
H   31.033936   87.599014   60.166771
H   35.257866   63.867828    0.118057
H   93.170036   94.996803    6.087689
H   20.276329   77.937851   93.585976
H   70.044739   25.723053   61.602882
H   61.153206   98.256653   71.069351
H   71.020958   35.680672   86.178406
H   96.199181   15.532878   35.638294
H    4.421402   36.373562   38.969414
H   70.230286   30.678566   68.487091
H   75.878433   48.424957   40.807556
H   42.084816   68.027519   38.792618
H   15.223114   75.900208   64.216194
H   12.630542   26.831886   60.689491
H   31.664885   30.174887   82.673805
H   80.103500    6.546152   64.855751
H   56.628010    9.072235   74.861809
H   82.273544   45.771744    2.598311
H   26.379177    9.907474   43.343872
H   44.750790   15.283029   50.666954
H   72.227028   62.162003   96.543800
H    0.691182   29.233093   92.384377
H   16.266312   74.046791   33.990280
H   99.486923   11.733291   23.848793
H   56.868099   41.360744    9.399407
H   93.434731   84.780746   66.128532
H   28.836716   99.104469   53.195362
H    7.043612   10.170084   27.424665
H   55.195339    6.056382   95.310829
H   11.770674   68.383163   19.385481
H   37.732201   58.619385   56.428391
H   39.407261   83.109161   37.669216
H   70.547546   67.576935    0.457588
H   73.006599    2.875290   35.934017
H   35.900127   25.287037   96.446205
H   67.281540    2.670840   56.851921
H   56.414051   29.050989   70.907005
H   60.612442   61.627045   14.031844
H   94.461082   80.512611   54.955364
H   43.295139   53.946259   87.895187
H   64.048508   60.308502   59.393772
H   76.708076   40.969299   12.952362
H    0.970531   53.856041   76.112823
H   80.430801   45.158806   28.160189
H   97.657730    9.094992   81.308289
H    3.556535   95.192009   66.991646
H   82.565422   68.076447   29.328781
H   48.174057   76.934006   60.444614
H   43.232002   79.131378   70.604012
H   65.974800   26.502560   59.439793
H   82.855919   97.505386   47.398354
H   96.060326   84.143974    9.236771
H   67.585686   59.582489   38.360813
H   62.116390   99.673958    0.089531
H    0.464049   79.711494   39.531723
H   25.210560   61.412495   24.938326
H   54.484535    4.551467   22.527510
H   19.877846   14.824974   55.144985
H   96.636536   12.613663   94.847443
H   18.194912   72.908882   22.922852
H    4.341202   43.000275   96.035553
H   93.780930   56.557232   77.905754
H   58.229435   42.447578    8.862724
H   19.831842   33.299999   49.286411
H    2.960062   17.148588   75.899323
H   63.850796   43.125008   48.881107
H   85.610870   36.903172   95.028946
H   18.321913   43.913708   54.166733
H   39.158455   30.862137   39.207718
H   74.869431   63.111309   75.429153
H   86.676041   65.583145   13.342020
H   24.691679   61.839172   41.351170
H   75.120193   91.979706   64.751831
H   93.106949   44.344707   30.762505
H   76.033875   29.166164   68.861908
H   85.550621   65.597282   79.469482
H    8.593668   43.490173   61.735619
H   23.545429   12.104128    1.446890
H   77.227051   74.739822   41.111908
H   57.844482   50.001484    2.518194
H   20.239412   41.427940   95.833397
H   95.068054   25.633024   71.878563
H   63.286694   11.581898   47.297447
H    0.052570   56.823788   91.228691
H   64.010178   66.602547   98.548973
H    3.045474   55.339138   49.129051
H   18.869955   44.079773    3.713577
H   52.938133   50.945980   71.140770
H   42.322681   94.721138   82.730392
