100
TIME:    0.406, STEP:   406
H   89.866615   84.789101   98.774307
H   89.976570   26.757393    3.610843
H   86.740082    3.113483   18.572762
H   81.544754   15.922819   17.908674
H   91.534546    5.300210   54.696709
H   21.720596    0.771769   18.952837
H   31.692478   88.752434   22.202501
H   87.975494   23.726376   70.917213
H   43.647743   47.258194   74.531654
H   63.745247   22.215515   23.588099
H   62.489899   82.578903    0.641874
H   40.345181   44.041267   64.029472
H   17.437061   37.143936   84.775688
H   34.979115    3.825476   88.136574
H   85.440620   33.757759   31.255884
H   85.199371   76.226082   99.338364
H   91.424767    8.846420   10.320409
H    9.820529   74.956818   85.470993
H   51.586365   95.384247   84.752350
H   81.659340   97.019470   43.886162
H   40.183929   15.798424   46.222961
H    1.277650   44.635811   84.685555
H   80.323341   91.320244   20.734016
H   81.319717   41.551090   76.922287
H   15.062792   53.975666   39.556595
H   44.797367   15.512059   51.118629
H   27.068567   25.599697    8.022711
H   98.284416   75.389893   80.195023
H   19.999374   85.927666   37.979828
H   16.561544   80.791245   15.664474
H   32.072636   58.450600   77.284477
H   91.392548   41.293739   61.678627
H   98.955261   38.776924   34.372643
H   95.256294   36.515137   54.646904
H   70.680061   28.229813   49.450218
H    7.854989   16.379076   19.247343
H   18.740032   89.666847   40.456432
H   47.208710   51.523266   51.090847
H   32.467625   71.841087    3.212934
H   24.953110   74.175423   69.978264
H    7.496830   70.110115   51.905796
H   95.132195   30.079020   21.874563
H   14.738231   65.934601   30.799259
H   53.433365   19.575651   20.428436
H   21.438324   15.873057   90.849670
H   72.766167   70.836479   84.910423
H   40.367054   47.643024   31.092474
H   56.261097   99.563309   93.698944
H   76.896599   98.825119   28.278067
H   34.404903   36.928974   55.267693
H   43.513645   30.447256   57.697681
H   24.863344   26.064842   47.409523
H   17.301012   24.362854   79.290810
H   67.285980    0.577552   49.731770
H    8.437323   94.096710    3.851233
H   94.074234   12.105257   78.805603
H   21.990776   77.831917   94.601326
H   95.827332   38.545158    3.096994
H   22.297531   55.923248   80.315109
H   32.226776   58.995384   52.061974
H   85.311234   59.688438   82.740570
H   84.501404   24.166367   76.985413
H    1.770994   79.467201    5.704792
H   70.919563   44.003021   16.116934
H   48.437645   28.417290   33.370911
H   76.404182   22.089649   70.191750
H   54.994652   62.396687   86.663559
H   52.320625   40.757187   85.611748
H   77.137962   20.613747   34.768978
H   38.610939   68.565575    0.877008
H    9.139585   67.780357   57.278080
H   40.490421   38.051247   86.347176
H   80.519608   98.225410   51.338932
H   21.254578   23.686884   79.078819
H   81.746262   29.221388   32.175953
H   35.256893   33.593086   68.609879
H    3.816724   91.355095   98.217712
H   51.054947   24.173046   36.862263
H   81.013603   52.312984   22.215500
H   79.614487   86.842934   85.943970
H   18.826916   33.481915    4.254626
H   71.786385   46.879044   52.830460
H   43.484585   14.033973   68.569366
H   78.099335   46.903538   26.346535
H   32.561386   23.487976    8.395303
H   41.948818   23.966896   69.977104
H   94.270531   73.833412   42.902798
H   62.490967   72.788704   91.518959
H   64.108589   71.566795   24.878998
H   30.440277   92.580643   38.726116
H   40.637760   95.354858   42.035717
H    8.326647   26.040915   41.259743
H   11.333832   39.795944   50.324211
H   86.469154   37.859497   54.192265
H   49.572636   13.362087   25.415821
H   27.455551   79.698845   46.478584
H   30.375650   90.980034   13.839565
H    8.355853   19.694519   49.539536
H   89.371269   38.600399   11.043644
H   64.455460   68.276024   58.582504
