200
TIME:    0.220, STEP:   220
H    8.856587   62.541370   14.997589
H   27.786024   32.586189   89.085258
H   18.556889   68.262756   44.363091
H   17.168335   76.739998   45.022690
H   15.422488   83.222351   53.946053
H   90.269226   53.357826   66.141472
H    3.069473   55.318321   49.264248
H    2.440438   88.022736   25.782246
H   86.616249   87.806061   48.207317
H   11.565243   75.179039   96.861336
H   11.496559   94.166939   92.329651
H   30.695099   41.489014   11.789308
H   10.683299   86.344124   62.111382
H    5.349041   53.122555   41.302059
H   20.587484   71.790627   43.027802
H   29.883350   26.790417   54.754448
H   83.266556    6.781812   16.403080
H   37.037109   82.205582   43.876431
H   64.359985   30.425983   42.189415
H   89.992622   79.979332   38.246021
H   57.845055   75.759872   26.756763
H   90.474281   48.049904   71.345413
H   95.604118   62.686874   49.616096
H    8.184625   87.876900   91.648796
H    2.377159   11.899582   46.124004
H   18.677649   61.448750    7.617102
H   98.508492   58.395451   48.277725
H   94.051300   69.304390    0.678647
H   10.226232   57.137642   38.455475
H   93.953201   20.228571   99.317734
H   13.387604   50.613682   16.170361
H   32.289745   63.037582   93.110725
H   27.606544    8.555183   72.934860
H   97.088478   63.556099   37.940720
H   48.948215   90.627426   34.371220
H   33.714561   50.377960   79.247139
H   85.690430   74.860672   85.804787
H   33.904209   44.237965   16.066681
H   53.810455   47.116787   43.987068
H   90.274551   39.770733   64.477631
H   80.498360    6.158070    0.860437
H   12.343828   43.526276   40.424171
H   77.061966   88.241371   49.585636
H   37.325821   62.262657   18.033041
H   28.093679   75.684952   43.642174
H   41.341240   14.358994   42.470364
H   79.597260   27.192024   95.740471
H   90.602730   65.550911   48.366653
H   86.306900   29.511135   61.151913
H   62.833111   17.711248    6.558574
H   78.684006   70.749260   28.661350
H   21.902658   35.353741   63.111572
H   51.637444   94.994591    7.666565
H   22.704254   81.761642   81.406990
H   78.045456   76.829727   91.420174
H    5.562040   72.842766   77.993317
H    5.487561   16.669777   49.869129
H   67.190170   58.114460    5.664415
H   28.603182   74.091110    6.642763
H   43.565861   96.101479   67.363953
H   50.484291   15.766611   42.820839
H   89.577347   16.377504   48.912907
H   70.896317   24.792154   85.559662
H   23.641457   65.123802    3.220965
H   71.026871   75.780914   17.111769
H   39.524231   15.784115   32.503799
H   86.922218   23.583855   85.421913
H   97.453423   91.404457   86.875587
H   15.811089    5.582976   62.232948
H   45.352093   41.281399   50.983662
H   58.473938   76.246216   72.746368
H   32.702549   24.347536   44.904827
H   76.859024   25.317333    0.165456
H    7.213794    9.404298   59.990429
H   78.901505    0.547827   68.553116
H   52.808235   19.782703   63.008163
H   95.512115   29.205645   72.428474
H   27.296017    5.605749   48.651436
H   11.378506   28.802351   35.381420
H   68.577454   90.778488   95.210114
H   42.519253   30.440069    1.430491
H   25.757057   68.949898   88.475517
H   11.077743   13.446918   90.864891
H   25.326265   61.205605   93.199677
H   39.620422   99.112366   58.348984
H   24.103745   86.474091   28.199158
H   34.958839    2.742434    1.725473
H   75.497810   19.288706   10.687833
H   65.076202   72.000923   77.093544
H   23.544304   85.150703   55.085537
H   42.081215   34.720142   80.843445
H   84.194740   88.359985   97.931442
H   46.309605   17.087662   96.299438
H   60.924702   95.152184   68.555504
H   24.618118   57.196739   67.106804
H   70.100319   27.262138   30.002043
H   79.034294   14.970930   97.467865
H    7.444506   28.127926   48.404209
H   37.471092   69.978378   52.810371
H   66.856682   97.602371   27.245523
H    8.973933   79.873413   67.998024
H   89.828590   76.353989   65.974922
H   22.764814   37.900848   30.223339
H   20.914865   67.902557   89.368149
H   25.365252   27.735565   24.439114
H   86.631325   27.752077   44.827126
H   64.710884   29.848444   56.352310
H   64.868996   33.506477   19.514959
H   72.288292   40.342110   98.165489
H    3.724264   28.339243    5.439379
H   46.931404   96.240578    0.781779
H   85.190887   62.842293   90.283348
H   57.441406   80.042572   94.370399
H   63.291924   19.828522   75.469727
H   64.517677   81.135742   27.473915
H   14.854705    6.382410   78.032135
H   33.397236    8.161090   83.946945
H   40.872585   26.012058   34.378288
H   18.102797   56.962727   84.528122
H   70.254829   46.275692   48.596680
H   40.345833   21.626530   88.175194
H   19.152058   27.953815   47.599861
H   31.754217   22.666073   23.435850
H    4.371978   68.038582   18.741020
H   77.514824    9.447282   93.474602
H   46.989620   61.805172   25.917547
H   95.883766   49.096542   71.827164
H   75.866142   87.413109   34.833660
H   92.221596   53.207623   85.346046
H   66.775803   24.244141   66.160881
H   47.801613   85.899811    2.647038
H   82.467674   85.853012    8.855336
H   92.503059   81.621681   97.226379
H    1.901284   12.490166   49.460892
H    3.438067    1.731747   57.335922
H   62.890762    1.652519   83.976250
H   68.859604   86.513557   54.343025
H   91.047752   64.845314   83.514381
H   45.790466   44.053940   71.554817
H   43.437111   10.049155   96.013214
H   49.627514   63.656815   14.263906
H   58.159012   40.403145   45.780659
H   55.648430   56.392872    0.058835
H   58.629524   27.251686   77.793007
H   39.361843   70.430374   48.414555
H   45.207329   61.631111   30.804039
H   44.258232   96.865379   47.425098
H   43.198555   74.163170   68.939720
H   64.650604   65.627243   98.143280
H    8.824427   88.456444   90.745377
H   76.925179   60.970287   51.495182
H   32.945465    7.663090   48.779083
H   75.246643   32.586422    4.166724
H    9.381193    0.683668   76.446754
H   12.819462   53.350857   60.391350
H   62.908379   43.479313   53.445648
H   59.101910   60.283840   80.518967
H   45.761719   36.980789    9.255573
H   13.297159    1.809691    3.346602
H   63.903904   57.759857   77.473557
H   53.759491   85.221916   83.947655
H   44.543133   23.159946   35.717239
H   64.358452   35.441910   37.240368
H   10.540560   19.592121   72.054504
H   59.145683   21.409727    9.628031
H   11.569114   65.075539   62.411152
H   75.244225   97.890450   52.009678
H   23.614742   30.022606   47.185688
H   93.801201   28.235250   36.904160
H   25.560249   10.610642   90.628571
H   79.747070    5.395973   35.977753
H   46.853859   66.189911   57.396698
H   37.286514   78.313614   90.986771
H   71.470299   75.023712   73.780716
H   72.367432   95.186996    0.171807
H    0.289886   47.552818   23.267557
H   35.623203   52.296379   86.071327
H    1.552747    9.181786   64.624466
H   76.113045   21.844500   69.368759
H   87.251915   54.240562   86.102867
H   81.782959   84.472710   42.184311
H   18.824263   30.081631   68.886032
H   66.555862   90.186508    5.674188
H   51.045433   25.183298   76.454506
H   85.264328   89.201843   78.479233
H   98.841728   36.055008   83.854103
H   30.655653    4.867156   98.822037
H   91.381897   66.377388   24.826740
H    7.197563   61.084217   66.314835
H   49.249878   58.382107   65.450333
H   46.864841   31.686043   79.444283
H   47.816872   84.385681   24.879133
H    3.656225   17.048218   57.348068
H   35.452991   62.732819   32.910221
H   85.580948   55.148663   21.881706
H   75.279312   10.334370   29.840382
H    9.328338   85.014061    2.791722
H   29.490736   97.803673   47.530754
H   12.180015   11.555933   78.911537
H    8.216343   35.670307   98.026657
