100
TIME:    5.772, STEP:  5772
H   26.985308   92.700432   93.861588
H   41.065926   17.639296   42.048771
H   78.976685   89.165161   55.591404
H   82.445419   94.843048   23.779526
H   43.471771   35.408676    9.203123
H   38.513592   94.954857   50.367260
H   50.458858   51.091595   41.830997
H   66.218475   87.953415   78.228355
H   11.741158   31.339218   36.759964
H   17.107698   99.260735   33.714878
H   63.357651   98.491714   83.761009
H   35.540169   13.010983   82.072044
H   75.743637   12.546021   51.486748
H   69.285957   87.284950   96.491020
H   50.707466   54.449051   73.318756
H   69.444153    6.888793   53.914764
H   59.957222   63.742222   98.836273
H   24.498281   13.972702   99.439003
H   35.168545   20.495157   67.451904
H   37.008858   83.237831    9.317163
H   21.758049   81.596619    0.582759
H   15.747604   51.746399   27.739136
H    8.678466   47.678917   67.206619
H   82.756248    5.878146   78.394852
H   23.144165   28.411293   79.167397
H   20.234289   56.025833   47.644394
H   64.353973    2.540796   14.491049
H   45.516911   25.857140   57.566612
H   36.677788   72.773041   84.327057
H   22.317177   47.982841   42.245682
H   43.220284   39.641926   52.716667
H   30.204716   93.038910   64.921104
H   76.929680   46.175026   17.784300
H   21.982471   44.753319   28.585295
H   37.295792   22.600828   76.202118
H   74.387787   37.516884    1.279336
H   33.409180   93.151489   63.276348
H   25.425617   53.325207   29.755604
H    1.432832   55.654411   84.962837
H   19.535898   71.828636   92.163292
H   40.775925   54.232468   78.331520
H   13.781394   64.238037   74.629204
H   60.958454   98.112915   18.391998
H   10.782768    9.525778   45.091278
H   55.976727    4.159743   50.036236
H    3.618655   73.008896    6.610571
H   86.828415   38.739517   80.871239
H   56.547672   54.819702   25.716543
H   33.751068   54.411957   14.226012
H   46.934017   18.584883   79.962570
H   43.105259   12.394014   14.273255
H   85.641304   28.140644   95.140053
H   28.600605   55.476746   67.641624
H   43.024330   13.025563   86.519371
H   81.219505   64.436478   49.442417
H    0.784758    6.462139   96.134293
H   62.170105   22.998375    4.952637
H   96.260895   31.793852   64.881943
H   45.501579   82.649986   68.364586
H   78.125839   71.444016   99.441185
H   23.802959   10.147812   64.364128
H   94.058357   74.217117   34.189613
H   65.922813   13.411921   37.667084
H   39.392517   73.205658   70.432281
H   61.425316   99.843613   33.090687
H   46.762810   55.329826   87.469017
H   24.470375   47.914410   45.734879
H   81.654152   47.644505   42.137577
H   44.578609   35.047218   98.221924
H   47.324356   38.456993   89.578949
H   38.746330    2.673729   92.908577
H   98.039810   59.963531   79.221207
H   30.646648   32.799347   13.752617
H    3.147408   84.108849   60.200768
H   40.462337   36.869595   38.955215
H   62.115211   77.504570    7.547656
H   91.015068   26.267141   93.128822
H    3.159388   73.304405   33.205803
H   38.300922   36.564541   82.081200
H   16.460747   94.591042   23.658092
H   23.821070   88.995651   24.967707
H   74.415848   81.903076    4.112801
H   82.966850    3.647325   79.639969
H   47.253708    6.081363   36.233860
H   71.280571   87.842873   88.221802
H   18.447117   21.068512   42.608490
H   52.653557   83.681358   98.774658
H   48.858635   43.192532   35.731094
H   75.468369   72.796593   80.983284
H   56.017040   71.801437   30.552977
H   60.236687   85.102753   55.355877
H    5.368448   29.588518   43.505363
H   55.449768    0.706598   65.362198
H    5.109619   63.353710   15.996005
H   56.797462   32.709118   48.720005
H   70.665115   67.801666   69.317581
H    4.448458   98.924141    5.236138
H   27.136034   72.055771   63.006264
H   33.748169   61.731121   61.572662
H   97.733093   30.516338   41.705891
