100
TIME:    0.782, STEP:   782
H   64.438881   50.307899   98.430069
H   79.517464   47.144535   27.328489
H   93.200287   30.163776   14.157906
H   81.607864    0.430664   97.298576
H   88.166748   35.438271   44.501518
H   15.890060    0.362546   56.190311
H   11.986418   14.141310   51.606190
H   58.422638   56.254025   36.393555
H   34.404945   11.107340   50.863678
H   53.469734   27.612885   38.312889
H   27.515289   97.708176   64.422295
H   25.993313   62.888313   37.264946
H   93.519653   14.395472   47.404160
H   16.361561    2.666182   16.750172
H   90.013252    0.173360   13.181828
H   70.081573   43.338047   68.127426
H   61.194908   33.711899   44.554115
H   17.855072   56.672028   72.435837
H   57.441284   11.157947    4.562654
H   71.481361   89.136414   69.537651
H   17.871552   78.367096   36.019165
H   37.331165   45.132088   52.670376
H   75.303200   88.262260    9.975538
H   46.385269   46.060612   48.997284
H    1.615843   24.156025   42.332397
H   43.073307    4.309136   15.876580
H   94.645844    9.969567   15.484076
H   66.557121   92.940308   92.622025
H   28.175034   20.041155   20.206612
H   30.977957   71.485336   45.555050
H   46.863407   92.168739   47.530815
H   15.132967   30.906349   26.870399
H   25.440468   11.267630   68.245689
H   11.143390    2.057165   38.806206
H   61.333992   99.806801   72.345978
H   40.547211   45.915478   17.953581
H   54.802387   75.897316   70.083870
H   31.669220   44.641369   77.624489
H   15.564034   63.814598   67.176712
H   89.537758   38.975018   99.559807
H   81.800278   83.013313   60.767063
H   61.339470   46.955299   39.539722
H   17.976660   68.189362   57.956856
H   29.422899   25.876646   57.192635
H   88.822716    1.038503   23.025507
H   67.964043   77.904839   86.384911
H   44.337269   67.926712   34.305367
H   56.281178    3.434843   16.963621
H   87.889275   67.683029   13.279187
H   42.290829   42.651936   28.970757
H   43.484959   94.146141   61.662159
H   43.136101   91.175140   22.724770
H   25.100878   26.543030   57.453766
H   58.580700   94.444160   66.324051
H   78.505173   27.058783    7.041883
H   94.544693   11.710100   66.005676
H   45.826408   66.982674   30.362251
H   67.829285    3.037025   93.412186
H   51.950790   71.809845   51.449482
H    7.415562   87.894684   41.367638
H    9.029531   42.204002   53.423981
H   71.156433   20.666611   59.973625
H   27.275146   53.827187   79.909767
H   96.737434   46.048370    5.907400
H   63.363243   98.386589   68.388191
H   53.305794    3.397599   92.423805
H   24.827562   75.397064    4.816713
H   26.347847   62.260605    3.586723
H   95.875999   93.596802   11.185934
H   46.227211   87.475731    0.086338
H   97.199379   42.195271   52.768559
H    9.488003   25.572609   13.875563
H   56.004105   79.625069   41.697392
H   12.978778   99.892487   56.732018
H   99.876144   29.756392   60.678883
H   44.146847   57.692635   43.310711
H   37.955418   58.767204    4.871330
H   68.720108   99.587196   57.628437
H   99.034477   51.211765   26.408035
H   61.174789   66.366493   53.551147
H   26.185009   37.371807   26.726589
H   99.996712   49.334610   21.387646
H   67.274712   20.309374    4.381553
H    3.963479   79.078346   92.003029
H   14.252325   99.968353   71.946358
H   33.294094   37.778622   96.087578
H   19.382742   46.495155   60.831875
H   68.543823   42.685066   87.611855
H   71.911324   50.631371   21.802368
H   97.197037   77.107132   52.168621
H   56.025211   15.657946   49.976147
H   36.147038   54.319786   48.422768
H   35.457970   51.061142   79.412346
H   22.810785   60.668152   79.544304
H   43.072269   79.683044   34.055107
H   58.511581   64.850700   27.057808
H    0.531255   12.557652   92.215302
H    9.736392   22.895935   43.523972
H   71.459404   40.221188   79.546761
H   87.806290   58.618542   22.368254
