100
TIME:    5.052, STEP:  5052
H   75.676430   58.727180   94.520767
H   60.951180   78.624786   96.650024
H   66.595093   37.364624   64.045357
H   82.324570   24.508392   63.247337
H   49.920746   77.697586   28.723560
H   49.681194   95.734886   79.063042
H   88.194923    2.471903   85.525986
H   22.809059   25.664318   44.336445
H   29.440132    0.564083   82.081871
H   36.781548   88.922600    5.518979
H   30.330292   69.520767   53.114742
H   63.022469   76.921379   33.321632
H   21.688431   56.086067   23.029785
H    4.936376   89.504189   41.699966
H   41.951363   18.762468    7.926508
H   98.393127   69.862625   13.680790
H   17.855476   16.121983   33.291840
H    9.101558   49.004025   24.397272
H   23.955025   90.290192   29.521105
H   56.405220   98.530800   60.296272
H   64.483879   53.275452   20.124680
H   46.720505   50.790588   89.053833
H   18.292549   53.534630   87.805984
H   49.654781   97.264862   31.867264
H   48.895172   85.510666   73.850014
H   23.516455   77.308411   15.351118
H   26.438898   32.470852    0.204328
H    6.269202   92.250000   33.764732
H   21.022270    7.449191   18.361370
H   94.710007   65.802666   85.008369
H   14.882655   75.077621    9.680779
H   84.743660   12.932191   31.575081
H   26.213009   98.854469   52.921013
H   91.560059   10.737048   58.918236
H   55.192520   77.027573   32.359650
H   11.799565   81.122795    3.543743
H   64.350586   19.520657    6.543180
H   55.182087   66.502266   78.946724
H   31.825970   71.342888   54.735809
H   87.351402   39.231979   35.515018
H   89.983688   29.529707   61.368633
H   77.575493   38.594284   40.145374
H   54.756672   93.795288   66.384010
H   56.755215   97.440430   74.693405
H   18.432482   32.565468   88.423485
H   12.909542   59.275990    3.684758
H   81.203415   99.582115   73.960838
H   56.509220   47.403931   81.167076
H   12.706757   14.043636   42.948151
H   31.833309    7.626020   30.320671
H   43.159184   81.905289    6.683075
H   50.649849   94.951294   42.408073
H   13.664907   51.301941    9.456236
H   59.696083   24.775093   54.746910
H   38.547607    1.337545   43.317539
H   99.887405    7.219509   20.644806
H   16.527405   43.773521   36.474770
H   49.872940   99.788246   83.426865
H   88.717461   52.228668   23.637859
H   25.639202   16.101124   19.919685
H   78.384521   43.630199   20.502647
H   19.610609   80.918777   66.769104
H   17.040205   62.543747   87.039642
H   89.951332   69.283539   89.976959
H   32.844383   57.350101   66.039818
H   90.993767   91.123283   44.896996
H   82.236847   23.023891   10.972473
H   31.389702    6.466070    7.717414
H    8.692051   86.781837   43.380547
H   32.740005    2.242407   91.095062
H   61.608879   51.662140    1.544225
H   57.405792   83.858795   26.505184
H   77.591309   68.412209   32.215141
H   18.995205   29.678238    2.981380
H    5.749318   35.842373   84.373627
H   45.091896   31.358149   55.993023
H   25.643461   88.672554   80.395668
H   69.332474   20.382099   93.442146
H    3.775983   38.679409   74.050194
H   51.765594   33.810459   85.686981
H    9.731714   81.546921   81.935371
H   20.382797   77.220963   64.332420
H   37.425316   91.606628   11.070157
H   97.719818   44.469894    1.995556
H    6.338284   32.879387   58.017647
H   35.019993   94.622231   92.609299
H    4.566396   36.031372   64.442383
H   37.274796    0.819689   43.204842
H   60.526962   12.885229   86.871956
H   19.673693    1.420845    4.815268
H   30.771355   46.224651   40.150799
H   52.095737   75.438095   29.788931
H    9.296405   79.107307    9.683491
H   35.522919   19.673407   67.447762
H   69.244972   97.201530   32.174595
H   11.196120   96.234283    6.506538
H   61.598289   57.604565   46.643967
H   25.409430   59.252441   75.191353
H   68.047485   58.627483   21.878815
H   53.009098   48.990070   11.065005
