100
TIME:    6.672, STEP:  6672
H   66.122147   10.166430   93.037613
H   16.211540   66.411385   98.795815
H   94.453674   53.914162   45.023930
H   82.596481   57.764191   74.448730
H   35.410553    7.547565   84.800446
H   24.554089   93.979820   39.496723
H    3.291465   11.862295   12.212244
H   95.480247   65.813660   95.592445
H   89.617378   44.807846   80.108711
H   92.523415   12.184523   68.953529
H   79.641846   34.704792   97.068962
H    1.187324   58.123478   18.008770
H   18.312607   58.120953   62.058037
H   24.723225   84.510902   64.983437
H   61.644112   74.056908   30.046200
H   33.257935   28.171608   79.206543
H   87.584480   23.272121   80.766823
H   43.744953   70.179565   68.237831
H   49.182980   58.253792   14.869601
H   12.763405   64.121620   70.593407
H   68.350784   91.998260   76.152000
H    2.031479   52.941162   51.095840
H   96.661385   40.359276   41.457413
H   99.132591   16.644747   11.552324
H   90.955879   57.037949   85.814125
H   16.131582   29.418320   63.011200
H   86.745033   65.132034   32.350552
H   69.576950   67.866112   87.313583
H   56.247185   54.427898   41.782501
H   56.827015   25.708061   13.793560
H   78.641487   20.347031   81.511604
H   87.031494   68.168610   81.603615
H   40.323856   80.327293   98.863403
H   60.009804   62.273727   90.671173
H   14.908607   54.506020   30.981104
H   52.623043    8.008183   98.449715
H   19.730957   60.192505   34.192722
H   88.226631   36.852581   93.266609
H   63.447285   36.043816   97.746323
H   34.765827   87.572998   62.974735
H   79.267899   85.115608   99.535133
H   37.934235   67.767395   20.577862
H   68.706512    3.511268   83.399498
H   53.312878   24.631979   33.088707
H   77.908653   68.647079   27.051603
H   92.001854   90.175034   10.266958
H   93.859665   87.683609   89.509239
H   56.595737   64.089417   81.403488
H   60.056458   79.874672   78.326187
H   65.819092   32.285542   17.025377
H   43.043461   25.505205   23.759575
H   29.384663   44.627846   36.061073
H   47.270496   60.695251   15.368872
H   22.184639   98.340500   26.232693
H    9.560104   43.307304   57.098515
H    1.905727    5.515427   65.496170
H   19.228289   97.028450   90.550087
H   29.244436   46.799660   41.700790
H   16.483986   20.679424   99.273994
H   18.736237   40.620632   73.843040
H   80.575310   68.291153   94.194839
H   62.115608   65.840042   93.466309
H   27.022135   51.997963   75.951385
H    1.193425   78.108307   45.996372
H   97.145111   27.962311   16.903330
H   91.476074   10.588213   40.684555
H   52.261642   79.029633   89.185806
H   19.485268   99.115456   85.162781
H   89.433266   70.378967   41.776958
H   65.555382   83.724541   87.683807
H   10.165871   41.438614   82.114510
H   23.830503   30.094452   45.114769
H   71.964218   88.282318   90.677307
H   83.331841   27.148888    6.726418
H   83.854607   38.153622    7.180587
H   83.388100   35.185192   46.988014
H   72.742767   48.322735    9.070498
H   45.443020   14.454126   82.909462
H   81.459373   33.920956   92.119957
H   72.323959   45.564552   46.122368
H   41.433525   98.306564   78.759064
H   41.958275   87.739700   28.825275
H   39.894455   18.697424   65.351883
H    9.173032   83.096458   54.032261
H   27.458498   31.547714    0.976907
H   97.732101   54.129356    5.107078
H   12.762590   18.244041   41.690132
H   63.333122   71.174561   26.399582
H   94.145126   22.685843   73.622444
H   76.444778   34.772091   62.722473
H   97.068352   33.700912   74.362228
H   71.959335   97.277908   60.650902
H   13.141446   27.712322   34.960579
H   92.090096   17.955286   76.681732
H   41.238075   52.093208   69.401764
H   45.001450   32.260895   22.831680
H   33.009972   50.572021   53.476624
H   25.398821   16.590195   44.940620
H   90.874504   65.613518   86.187126
H   53.633648    7.421039   55.006268
