100
TIME:    8.517, STEP:  8517
H   41.351799   40.971489   91.348465
H   65.257614   66.389374   15.128703
H   26.170328   86.651367   23.363415
H   82.906158   81.749565   73.317940
H   18.879469   55.432362   34.773514
H   95.941040   91.980995   22.212704
H    6.594868   36.446815   56.493656
H   50.466888   25.430841   26.190926
H   44.263756   67.417831   63.973873
H   42.130501   38.676502   41.195717
H    8.024429    8.942571   19.349306
H   30.771126   50.603725   86.680016
H    0.648727   46.463455   78.710754
H   33.369789   78.824104    5.386693
H   84.053474    9.252396   41.317841
H   59.073288   66.800987   26.055664
H   39.220619   45.303493   48.724464
H   83.193787   80.401833    4.286065
H   77.919388   35.652271   12.071315
H   63.050030   24.946154   96.209602
H   58.865868    8.322453   26.078592
H   78.913429   55.390427   93.977081
H   72.027977   25.357130   88.668335
H   27.705462   38.716278   74.528229
H   24.967251   10.718964   99.439919
H    7.448751   75.022324   89.394516
H   27.648157   88.435318   68.960922
H   13.902283   53.984470   48.300201
H   96.364449   21.820829   54.568596
H   27.572163   80.043533   60.465576
H   51.254269   85.791496   35.541145
H    3.525964   17.197422   10.802681
H   70.283829   45.337791   65.075577
H   37.966156   93.190552   12.943941
H   68.991081   14.813560   43.234135
H   13.005934   52.519341   92.650307
H   96.690422   92.623299   79.571678
H   11.969543    3.085021   23.462532
H   85.566673   95.847679   18.951725
H   60.986359   14.850049    8.134000
H   53.174683   48.419922   43.001308
H   82.447464   75.002579   14.769155
H   84.584503   14.578745   16.665607
H   35.504681   55.603340   13.482280
H   17.869473   95.858742   84.933647
H   68.184868   25.360867   17.762552
H    8.279048   88.021126    7.221488
H   56.707455   83.092331   95.561272
H   13.992149   27.072319    4.726374
H    4.555637   60.367626   88.023949
H   42.916775   47.382347   43.209946
H   19.054979   73.425156   14.948197
H   85.535851   71.393188    8.217989
H   79.456512   68.245514    7.648474
H   62.658730    4.993560   72.785629
H    4.203672    3.574666    2.688019
H   36.192497   43.792137   66.025017
H   91.862732   72.561607   94.175804
H   61.993847   98.641426   57.636711
H   96.985466   82.433197   21.366844
H   96.959061   82.490967   50.342960
H   96.632927   48.667038    9.986742
H   52.280499   26.098455   49.434204
H   27.886539   88.158737   95.901062
H   70.379089   80.605713   88.719757
H   78.136208   18.867882   49.775867
H    4.233251   42.816532   78.262619
H   92.038177    4.633190   73.364456
H   81.388519   37.809029   26.061089
H    3.000643   76.430374   83.779190
H   51.576794   15.903558   59.986671
H   71.912308   68.802147   80.338242
H   51.667053   97.026207   43.374897
H   42.715214   10.379368   97.102974
H   72.743729   40.856045   47.066257
H   27.003939   53.433548   22.843664
H   40.308426   88.632202   41.792809
H   32.121365   93.819069   84.807373
H   69.932915   28.501606   12.705963
H   81.843925   45.058434   87.174126
H   77.549675   17.394632   89.032394
H   80.404678   99.704498   74.471153
H   56.594513   49.552525   41.059452
H   36.105453   40.977638   85.520958
H   37.623627   16.131840   22.125641
H   55.275288   21.896671   33.229660
H   35.986027   84.096870   29.666710
H   93.005821   23.534996    7.269914
H   32.437992   19.959360   58.532722
H   13.321294   58.865639   28.679716
H   72.573418   33.324039   13.325583
H    8.470652   36.038803   95.811989
H   31.409504   83.069298   77.637268
H   70.399918   29.889393    1.087038
H    9.336330   86.828506   11.798393
H   97.390839   59.404785   27.534996
H   86.563164   56.451851   47.368385
H   21.837534    7.881786    7.901472
H    2.982927   73.580666   31.649479
H   68.233673   60.071133   77.270874
