100
TIME:    9.606, STEP:  9606
H   67.707428   41.105476   90.351456
H   35.181168   25.398853   83.794304
H   44.889179   64.998009   10.580044
H   83.088943   36.884148   13.624503
H    9.121241   42.720245    5.248430
H   79.058350   90.801201   30.059891
H   49.518795    9.980456   41.654888
H   64.873642   19.643375   26.202522
H   17.494057   62.714218   95.423576
H   12.383650   54.312931   83.834480
H    6.728289   52.759277   14.448717
H   89.206306    5.189754    9.163769
H   31.207016   80.549889   70.489151
H   79.450058   75.467506   88.260658
H   97.280464   11.977547   88.948021
H   15.286377   71.553024   35.659241
H   51.649666   17.333633   47.860428
H    6.485686   27.410789   66.533279
H   94.885162   81.337067   69.442886
H   33.713032    1.819695   70.353752
H   94.242569   99.909737   96.519836
H   83.316925   56.836090    1.238664
H   57.488258   16.504519   57.511795
H   26.521622   51.743866   93.648911
H   86.019272   24.356491    7.478790
H    2.311906   42.918625   86.914619
H   33.742584   43.167271   90.562790
H   22.015554    4.815313   84.295860
H   20.044552   20.623468    3.091919
H   69.329796   53.091049   47.037758
H   94.111519   83.444199   49.382950
H   72.286057   87.108276    9.988503
H   46.991730   65.661713   63.181297
H   83.978134   93.390190   67.065926
H   41.889046   32.360970    9.488988
H    7.670793   37.816753   89.227242
H    1.139810   52.742928   65.380569
H   66.956200   83.160408    0.310924
H   39.600132   72.118858   13.419754
H   58.414837   12.900844   93.814590
H   78.749619   85.787689   68.657677
H   90.672264   79.273575   70.361565
H   93.956390   21.112858   95.324638
H   65.975746   73.885658   19.957394
H   23.405188   52.899509   78.124481
H   54.132874   46.130566   22.186781
H   16.793285   47.247890   17.679289
H   56.773922   94.308685   62.942020
H   45.821671   36.881138   61.288849
H   27.413115   76.949394   11.880972
H   44.769489   42.391647   51.730515
H   71.980576   72.374252   43.462105
H    8.120279   77.707581   44.971436
H   54.235397   50.475807   55.702217
H   75.950722    0.428184   82.041199
H    5.560020    2.429144   65.615875
H    5.231541   12.369488   69.597969
H   10.773599   69.718880   66.126610
H   47.884716   44.658752   74.033348
H   25.122211   66.138397   90.393105
H   65.658325   31.848158   65.442680
H   57.982201   38.530777   60.716080
H   26.213417   51.789604   74.759354
H    2.666197   94.090942   66.339737
H   13.600783   93.627235   90.133278
H   11.238026   64.730888   14.166484
H   16.861111   80.465576   30.840557
H   16.813828   66.914803   25.424957
H   35.664024   59.560440   57.762486
H   25.117844   31.128824   81.469452
H   16.990685   41.805408   46.925850
H   82.236122   32.643944   60.160526
H   80.663025   43.157688   15.450329
H   18.745449   41.456249   32.397072
H   25.201048   42.459568   29.634863
H   52.751701   23.226868   49.566780
H   39.212837   94.376022   61.109863
H   83.279381   22.615990   44.954193
H   22.156576   25.302868   24.860605
H   28.437740   85.734566   93.355843
H   98.869057   28.660837   54.120964
H   62.121216    6.773611   83.365578
H   25.473776   67.764565   44.770374
H   11.026994   34.165848   86.057762
H   84.599350   48.006332   16.560148
H   30.208813   61.900620    8.853034
H    8.717943    4.917467   81.594276
H   10.519087   36.395546   95.981750
H   55.036869   59.325432   49.626106
H   17.039179   14.058380   67.605743
H   17.140432   92.126633   36.323265
H   89.045624   17.942530   16.560076
H    1.216745   15.741919   61.851311
H   73.718605   95.810898   77.477058
H   90.507828   89.282387   36.820320
H   87.337784   16.401960   71.286469
H    0.123616   18.946987   84.737991
H   19.735506   61.763683   86.035240
H   51.105278   78.283226   40.434734
H   35.876839   32.129948   72.364105
