100
TIME:    3.277, STEP:  3277
H   95.712555   21.503624   96.145828
H   10.114212   82.418915   84.712204
H   36.083420    9.664763   84.873222
H   82.026642   97.636833   60.541080
H   65.819260   35.423504   76.851990
H   77.205940   97.657875    3.277796
H   81.222237   82.616524   46.718605
H   62.320557   72.103378    7.310068
H   73.073021   71.223175   93.811119
H   85.289619   63.436226   36.014107
H   95.436478   98.099945   24.092585
H   30.766747   87.949890   59.668495
H   34.812622   63.444321   99.422295
H   92.823433   94.975227    6.620411
H   20.361485   77.312576   93.249519
H   69.763290   25.110809   61.021828
H   60.590309   98.719681   71.706589
H   71.170494   35.340263   85.935730
H   96.308235   15.826556   36.007061
H    4.232826   36.224934   39.446007
H   69.814896   29.981674   68.297073
H   76.549530   48.434250   40.211441
H   41.991356   67.970589   38.592346
H   14.572739   75.984161   63.696308
H   12.380189   26.276733   60.741188
H   31.632761   29.966311   82.017662
H   79.499908    6.255164   64.994606
H   56.037395    9.398972   75.093163
H   82.425751   46.406845    2.267432
H   26.647568    9.734212   43.900360
H   45.026310   15.910720   50.113136
H   72.669014   61.968620   95.895775
H    1.184263   28.720959   93.014992
H   16.562099   73.405281   33.695374
H   99.312927   11.204133   24.275024
H   57.476749   41.910664    9.375342
H   94.106148   84.524399   66.680107
H   28.547417   98.976402   53.689312
H    6.748124   10.017584   26.746332
H   54.536045    5.401053   95.861549
H   11.292292   68.623383   19.550398
H   37.103081   58.933571   56.757263
H   39.467556   83.151138   38.174809
H   70.100540   67.694214    1.142010
H   72.399376    2.599119   36.533016
H   35.809818   25.420551   96.474617
H   67.336227    3.051540   56.919159
H   56.414425   29.123060   71.340126
H   60.817039   61.047325   13.752599
H   94.607841   80.619102   54.465794
H   43.294605   53.270462   87.968994
H   64.388702   59.658928   58.934216
H   76.853233   41.009888   12.545811
H    0.808445   53.741806   76.421722
H   79.873459   45.772278   28.219709
H   97.666489    9.087622   81.069992
H    4.000297   94.990028   67.657402
H   82.044182   67.415390   29.148457
H   48.726112   77.229767   59.907192
H   42.770096   79.669388   70.404915
H   66.416359   26.177052   58.894039
H   82.607475   97.440231   47.081604
H   96.535530   83.666313    8.756760
H   68.066338   59.620567   38.170742
H   62.394260   99.114906    0.741429
H    0.034035   79.363503   39.945618
H   24.648918   61.654476   25.276304
H   54.000999    4.951817   22.862150
H   20.226746   14.321999   54.705936
H   96.778381   12.965754   94.832703
H   17.972610   72.432610   22.838871
H    3.764028   42.767960   96.548035
H   93.324524   56.211002   77.726311
H   58.075359   42.004578    8.446699
H   20.169340   33.309986   49.817051
H    3.125556   17.597223   75.428284
H   64.486336   42.518265   49.004902
H   85.939743   36.445431   95.415497
H   18.657568   43.893147   54.244865
H   38.815163   30.480900   38.604660
H   75.006363   63.183727   75.847534
H   87.201233   65.628860   12.756666
H   25.134573   61.956024   42.017887
H   75.601807   92.578705   64.112457
H   92.766113   43.906834   30.083931
H   75.872803   29.423286   69.348007
H   86.018135   65.088326   79.803268
H    8.706327   42.929733   61.662827
H   23.690720   11.714386    1.389621
H   76.608185   74.451859   41.362114
H   58.130951   50.379436    2.666024
H   20.757368   41.954361   95.966805
H   95.516769   25.843069   72.419884
H   63.963291   12.006500   47.769394
H   99.931541   56.196751   91.389549
H   64.588348   66.326118   98.187416
H    2.489857   55.740856   48.726479
H   18.895643   44.139374    3.601572
H   52.604668   50.976154   70.554482
H   42.757458   94.541481   82.056091
