100
TIME:    7.450, STEP:  7450
H   13.509350   38.819984   92.325333
H   94.726456    8.567550   47.852123
H    7.829628    9.887019   35.888935
H   82.727066   25.710995   31.802418
H   28.440561   69.907692   63.705078
H   12.487306   93.136955   16.544250
H   62.513935   64.398743   73.052856
H   34.330986   33.121517   24.159294
H   70.492653   70.006241   31.135509
H   71.273720   23.355959   99.415382
H    7.274170   66.009506   22.128134
H   71.496872   97.120819   62.629860
H   68.687935   11.047424   84.745995
H   86.202049   82.112892   24.188198
H   71.093697    4.562096   92.632355
H    1.974229   60.124756   14.625698
H   25.022530   74.729675   51.591244
H   60.382633   32.321869   41.271156
H   61.297680   90.889145   55.855396
H   91.802231   47.602612   23.563211
H   22.183151   14.545860   55.035412
H   76.619095   53.973969   84.841980
H   86.273964   34.031853   19.196947
H   26.845175   25.951876   53.772675
H   63.129463   95.337112   91.559853
H   12.479946    6.476608   89.804390
H   19.656725   32.788780   47.789227
H    3.932887    4.180503   13.029155
H   73.163841   25.014139    5.007216
H   86.659683    6.452015   75.642357
H    9.258975   90.111664   19.958717
H   36.154720   46.674404    9.580208
H   95.124519   23.404676   68.951790
H   92.881538   90.974739   57.894409
H   95.545601   95.600517   78.316269
H   20.253433   68.944733   96.004219
H   94.351151   31.701262   95.496307
H   56.068642   22.612911   48.166451
H   30.605228   19.093805   22.351837
H   61.485809   14.739001   24.184629
H   26.096506   11.811803   17.863249
H   72.368492   70.818329   60.294277
H   75.401947    8.178226   39.594654
H    3.636957   37.690453    9.157355
H   10.423862   37.952839   93.626289
H   81.958702    5.013377   13.427702
H   99.937790   29.995045   96.976311
H   56.642330   72.102570   29.541302
H   82.800911   15.441525   47.291313
H   82.154053   44.127201   62.629494
H   42.990040   50.394302   31.959702
H   67.198563   72.434708   84.990570
H   63.409580   65.206360   70.185524
H    4.169884   85.650040   60.564102
H   47.615097   11.486947   63.716785
H    2.874725    4.697046   39.011215
H   68.548309   74.579750   64.544441
H   71.313400   73.326729   21.660440
H   77.839653   53.557095   39.549294
H   67.394402    0.418919   51.714867
H   29.652731   32.112549   33.535286
H   34.502876   58.598526   58.266823
H   79.841591   98.907990   22.601593
H   54.618763   82.346375   24.871326
H   28.025345   65.826294   89.354729
H   43.682068   71.911797   86.685989
H   89.840698    5.929258   26.748713
H   65.743279   43.611259   22.355682
H   28.208878   14.476837   92.981140
H   81.330391   22.839151   86.042267
H   85.460808   88.503876   72.783638
H   59.777149    4.230111    2.128889
H   21.237360   49.804264   70.733459
H   66.201500   77.908325   60.499756
H   21.345053   39.284916   66.165710
H    1.777272   85.048241   94.639290
H   43.402058   80.984322   22.867960
H   81.994873   63.584461   25.874956
H   18.768522   31.635723    0.798328
H   34.169479    3.182223   79.097084
H   56.660988    6.356027   25.259216
H    0.339252   92.785019   63.736149
H   89.104057   31.708410   39.443756
H   62.696224   49.671993   82.974693
H   89.576706   82.878624   25.558565
H   79.830124   82.705719   59.133835
H   64.723442   61.676781   78.788063
H   75.845512    8.917112   18.333008
H   10.291669   79.368370   67.259407
H    7.658254    2.761028   90.536743
H   28.907429   75.709297   90.792160
H   29.523455   55.790421   75.476860
H   63.012852   51.057308   95.124519
H   67.279121   65.155724   29.140833
H   27.786919   82.404099   87.279999
H    9.261092    1.540243   82.646614
H   71.256432   95.220123    8.732247
H   23.897097   55.084194   29.323366
H   53.812187   68.973106   21.021435
H    1.960402   87.454819   80.058411
