100
TIME:    8.559, STEP:  8559
H   38.511467   37.119865   91.310013
H   64.097641   68.665100   17.776936
H   26.892267   89.673065   22.870426
H   82.913208   80.019218   71.015938
H   18.503119   58.798847   33.634689
H   95.289917   91.935493   26.372105
H    4.393682   39.282982   59.778111
H   47.165771   29.064249   22.334496
H   43.231316   63.379715   61.329967
H   40.983345   39.279560   42.840187
H    4.117691   10.632463   15.303659
H   29.167992   52.708981   83.690361
H   97.970520   43.921448   74.536774
H   31.290224   78.694649    8.583027
H   84.563606    5.500748   39.298141
H   57.384598   63.127525   22.569176
H   35.843239   48.081341   52.547890
H   84.091644   78.358101    2.830226
H   78.573715   37.414341   14.283916
H   61.918575   24.054224   99.069160
H   56.373528    4.141139   24.938646
H   82.940010   55.446182   90.400391
H   71.467216   25.015707   87.466705
H   23.803049   39.218719   71.409119
H   23.465214    7.388046   99.750099
H    7.250643   73.784164   85.442276
H   24.026445   86.689590   69.794052
H   10.358517   55.944889   49.688644
H   97.277687   25.631277   52.583183
H   29.182507   79.004044   63.804504
H   52.907391   89.557884   32.218239
H    6.177841   16.037128    6.914539
H   73.242081   42.264824   68.859268
H   39.740723   89.341492   11.174662
H   67.945824   11.633568   45.789600
H   16.656805   55.809242   92.518288
H    0.718892   91.085213   82.881126
H   10.233669    2.316359   26.426231
H   83.794029   94.932518   14.881725
H   57.030594   10.918077   11.438481
H   50.304230   49.860916   43.990810
H   78.907944   75.167282   16.913342
H   84.945953   14.830687   19.699162
H   32.822964   56.308617   17.588650
H   14.226292   94.202095   88.527641
H   67.642693   26.161793   17.933184
H    8.607413   90.305183    7.624795
H   56.710018   83.524918   98.159996
H   15.219734   23.594002    3.050913
H    5.437233   61.006893   85.087486
H   42.913891   43.327568   43.652786
H   21.096308   69.528030   12.191098
H   86.406792   71.636719    5.778681
H   78.483673   67.560425    9.501708
H   59.314674    8.674312   73.142593
H    4.255983    3.530486    1.258235
H   38.854988   42.580254   70.019554
H   88.735291   68.595268   93.094017
H   65.306496    0.416035   54.412178
H   94.213707   85.661255   20.172264
H   99.608414   80.537598   47.068439
H   95.142265   48.276108    8.086325
H   55.132046   23.232328   46.554138
H   30.770611   88.387527   94.760956
H   72.045990   77.251404   92.630981
H   75.556068   16.779930   52.259235
H    0.863422   44.268421   80.290329
H   89.136963    7.035288   75.372299
H   83.481598   34.791176   23.426796
H    3.853659   78.540115   83.690109
H   50.242825   13.045682   59.482948
H   68.453537   67.407616   83.416977
H   48.928619   94.948509   42.297916
H   41.790760    7.721207   94.607430
H   74.766953   40.917889   50.250736
H   27.996965   56.125519   20.017591
H   44.122879   84.997192   42.537819
H   34.094280   91.072945   87.127319
H   71.947166   28.378239   13.174679
H   79.784172   42.770531   83.555779
H   78.371910   17.829142   91.542679
H   83.556473   99.976868   70.957268
H   59.251236   50.254917   45.059437
H   38.994812   44.571632   81.684715
H   35.578613   13.504520   18.054359
H   54.308537   23.439404   36.146255
H   38.791111   81.043129   31.669426
H   93.681297   20.174118    6.834404
H   33.309574   17.620989   58.189217
H    9.607858   57.137535   30.181112
H   74.292229   35.591755   14.212546
H   11.578226   39.197647   96.612434
H   34.101795   84.329247   80.885193
H   74.459183   32.437489    3.918938
H    8.610065   83.066605   12.763462
H    0.859872   57.746216   25.365654
H   83.229362   58.862160   44.952950
H   21.756464    9.959962    7.058249
H    0.982179   73.762032   28.131428
H   70.842651   58.993511   73.225067
