100
TIME:    5.891, STEP:  5891
H   18.938154   81.787498   93.752640
H   37.779335   24.088095   49.552547
H   81.023087   97.726639   54.194149
H   82.465393   89.940399   17.256733
H   42.405899   44.947052    5.976681
H   36.667835   94.825935   62.152683
H   44.222507   59.127399   51.136951
H   56.865311   98.248978   67.302711
H    8.815910   19.897888   29.269064
H   13.856970    0.969478   38.374210
H   52.288559    3.279863   72.297890
H   30.997955   18.975758   73.601357
H   68.149979    5.349567   39.662285
H   63.393700   86.918159    5.546925
H   52.154655   43.819382   67.598999
H   64.659531   96.480507   44.036835
H   50.387978   71.613670    9.669317
H   27.043119    8.182583   95.313515
H   37.021564   25.487688   73.721848
H   33.803070   80.710243   17.419245
H   14.696419   69.750366   97.352547
H   27.156250   51.904373   17.605179
H    7.089483   46.711098   63.802002
H   71.699867    7.301730   69.557373
H   18.888393   18.973694   80.046242
H   19.691820   52.507729   36.454552
H   54.092033   97.594254   16.852346
H   35.476467   31.411659   61.500534
H   39.265297   83.569763   78.701721
H   26.879818   45.037621   51.705978
H   47.904129   50.312450   43.301765
H   37.718479   89.750504   53.904671
H   85.311394   37.468285   28.504759
H   27.010864   33.847649   23.572336
H   34.337860   13.604982   83.448959
H   84.732376   46.837364    0.905087
H   44.822365   88.793579   72.653114
H   20.507496   51.147160   38.152752
H   96.410126   53.061455   73.430717
H    8.327444   60.688457    1.525612
H   32.642975   58.315285   81.135109
H    3.752528   64.704697   80.704857
H   61.983471   98.826523   26.987522
H    3.184409   11.523153   56.725990
H   45.654835   99.464737   60.219219
H    2.083003   75.278641    7.094027
H   87.758102   45.211014   82.013374
H   56.554028   56.045364   33.079594
H   37.229225   44.556725    9.478841
H   49.429829   20.396139   71.638962
H   43.097088    0.905074   15.527743
H   91.424614   17.098335   87.328499
H   31.069180   56.166748   60.730274
H   40.268860   11.083797   91.770653
H   71.744682   74.864594   50.454723
H    0.932986    6.336963   92.083252
H   69.714516   19.564705   16.270714
H   87.399811   20.555437   61.816879
H   54.886520   87.677925   59.229317
H   70.272522   80.590179   96.056541
H   31.309914    4.613947   55.086285
H   89.834816   73.109482   28.804871
H   74.001289    5.291454   29.506897
H   47.564507   73.853897   67.201981
H   66.148697   90.339737   44.172489
H   39.452415   49.413963   94.505226
H   14.922466   52.028095   51.480057
H   73.434044   54.450108   47.826466
H   50.509907   26.496635   90.759003
H   49.734825   44.442764   89.328369
H   34.967659   94.577026   91.481361
H   88.227249   56.014175   87.933395
H   22.887299   26.913445   10.701172
H    0.528066   76.576927   53.130058
H   46.199345   37.039371   47.976089
H   64.928490   85.130913   99.540558
H    1.819143   15.952967   95.233330
H    8.750224   65.523720   39.778076
H   44.007061   36.215000   83.408546
H   10.625023   88.108650   13.406167
H   26.149828   90.226761   32.079731
H   83.347748   82.674789   94.158470
H   90.493324    5.637314   90.972351
H   55.440224   16.264580   25.365414
H   65.486366   80.399925   76.686050
H   15.707989   25.439587   50.872177
H   60.601295   75.029091    4.449077
H   50.772484   33.669590   34.497261
H   77.937851   66.170753   80.010017
H   45.495411   66.906052   34.806633
H   65.106651   91.528854   57.868938
H   14.173243   38.538452   45.772385
H   63.077927    4.277318   74.564651
H   16.610229   70.573311   24.020006
H   54.740166   22.049488   51.454594
H   80.494019   63.102386   63.171112
H   95.002800    5.753159   98.392227
H   26.906336   77.944397   60.617584
H   28.079254   62.244083   51.604851
H    5.124699   27.462624   30.241863
