100
TIME:    6.013, STEP:  6013
H   10.687981   70.599449   93.640945
H   34.409889   30.699469   57.245495
H   83.121078    6.503630   52.761669
H   82.485870   84.914154   10.569310
H   41.313156   54.725891    2.668923
H   34.775547   94.693764   74.234428
H   37.828938   67.365410   60.677509
H   47.276352    8.803449   56.100971
H    5.816917    8.167966   21.589613
H   10.524290    2.721351   43.151005
H   40.940414    8.188700   60.546059
H   26.341232   25.091022   64.917122
H   60.364883   97.971809   27.539726
H   57.352898   86.542122   14.831516
H   53.638329   32.921738   61.734684
H   59.754288   85.809975   33.909882
H   40.577492   79.683586   20.775457
H   29.652113    2.246494   91.084023
H   38.921299   30.606081   80.149857
H   30.516464   78.118935   25.725580
H    7.456764   57.604977   94.040810
H   38.852509   52.066330    7.215753
H    5.460491   45.718880   60.311554
H   60.364452    8.761202   60.496738
H   14.525254    9.298172   80.947243
H   19.135675   48.900932   24.982327
H   43.571358   92.523331   19.273321
H   25.182594   37.106209   65.533279
H   41.918037   94.638672   72.934570
H   31.557484   42.018150   61.404770
H   52.706055   61.251980   33.649513
H   45.421665   86.379196   42.610512
H   93.904411   28.542227   39.495483
H   32.166008   22.667046   18.433001
H   31.305252    4.382521   90.878494
H   95.337753   56.392815    0.521414
H   56.523277   84.325806   82.266273
H   15.464987   48.914204   46.761593
H   91.261017   50.403130   61.607872
H   96.836319   49.266781   11.124346
H   24.305424   62.501030   84.009377
H   93.470993   65.183121   86.933678
H   63.034328   99.558121   35.799538
H   95.394043   13.570883   68.654381
H   35.072727   94.650711   70.658920
H    0.508664   77.605606    7.589671
H   88.711227   51.845657   83.184303
H   56.560543   57.301926   40.628269
H   40.795067   34.453041    4.611993
H   51.988560   22.253057   63.105614
H   43.088711   89.126877   16.813709
H   97.353722    5.777626   79.320015
H   33.599987   56.874146   53.644199
H   37.443924    9.093078   97.154320
H   62.030998   85.555603   51.492550
H    1.084944    6.208631   87.930084
H   77.449348   16.044472   27.873894
H   78.315338    9.033701   58.674545
H   64.508102   92.832619   49.863747
H   62.221428   89.966919   92.586571
H   39.005695   98.940445   45.574581
H   85.504799   71.973923   23.284378
H   82.283424   96.966347   21.140991
H   55.942513   74.518478   63.890209
H   70.990646   80.596268   55.533665
H   31.957729   43.348961    1.718869
H    5.133888   56.245487   57.370071
H   65.006706   61.427280   53.658772
H   56.590733   17.730492   83.107941
H   52.206062   50.579437   89.071472
H   31.093616   86.276276   90.018166
H   78.167313   51.965256   96.865219
H   14.932335   20.879158    7.572800
H   97.841988   68.855125   45.881096
H   52.080982   37.213428   57.224380
H   67.812065   92.949516   91.331024
H   12.896018    5.378771   97.390892
H   14.482005   57.546127   46.516037
H   49.857052   35.856647   84.769356
H    4.642228   81.462837    2.895912
H   28.537294   91.488907   39.371510
H   92.504822   83.465958   83.953331
H   98.209541    7.677481    2.590586
H   63.833122   26.704742   14.222936
H   59.546089   72.769341   64.859482
H   12.899807   29.920856   59.344193
H   68.749397   66.158699   10.266562
H   52.734581   23.906961   33.232323
H   80.469589   59.377876   79.012215
H   34.708530   61.886860   39.167366
H   70.099388   98.116959   60.445354
H   23.200006   47.714142   48.096558
H   70.898392    7.938100   83.999100
H   28.400963   77.974922   32.246292
H   52.631004   11.121128   54.258121
H   90.570709   58.284637   56.869690
H   85.318901   12.754300   91.375961
H   26.670847   83.981476   58.168686
H   22.267426   62.769978   41.385750
H   12.702461   24.331924   18.488827
