100
TIME:    0.315, STEP:   315
H   96.020668   93.134285   98.857620
H   92.507896   21.823528   97.870667
H   85.176575   96.566566   19.641251
H   81.529480   19.672251   22.896692
H   92.349625   98.006165   57.164162
H   23.131710    0.870812    9.940685
H   36.461475   82.608101   15.086162
H   95.127914   15.853989   79.272118
H   45.884697   56.007446   80.259422
H   66.232140   20.909237   20.024385
H   70.954498   78.917297    9.407429
H   43.818638   39.479881   70.507057
H   23.225578   42.649536   93.820702
H   39.484959    4.106050   81.211876
H   84.333946   41.885635   35.630451
H   88.858200   84.185249    6.892000
H   98.741035    2.828520    2.035116
H    7.876033   79.382126   88.625778
H   50.169350   91.567123   79.957687
H   84.122627   98.927338   37.677956
H   45.584000   24.858017   48.692497
H   92.551979   44.515701   92.433662
H   81.538322   92.060341   23.337894
H   89.774597   40.459690   83.680359
H   18.317205   61.192654   38.884537
H   45.214626   18.223518   59.647797
H   34.915737   29.382454    6.216987
H    5.962623   71.142319   77.187424
H   18.020691   77.671349   42.281555
H   13.072320   83.043472    8.430477
H   28.492952   50.290092   84.485497
H   85.646729   43.807709   70.102959
H   92.545715   45.435020   26.174643
H   91.411400   44.854767   58.480690
H   72.942009   35.108688   43.909210
H   99.942711    9.230474   19.560461
H   10.011956   92.999367   33.285961
H   50.969597   53.188831   44.669498
H   36.558987   73.783669   11.934979
H   33.524220   82.694176   62.818787
H   13.715450   66.987267   49.761181
H    3.310772   25.994600   17.599218
H   13.954568   65.388901   24.226212
H   59.244446   18.050676   11.530956
H   29.331882   19.463493   83.062683
H   73.928383   69.125786   84.553566
H   39.406178   42.733807   30.314886
H   56.256237   98.626038   88.068375
H   74.236137    6.361633   31.908083
H   32.496342   35.543896   61.632111
H   43.520588   39.232674   56.738194
H   20.441160   34.509064   53.383759
H   15.413332   23.835205   84.575630
H   69.392410    2.062436   45.716084
H   15.681908   86.119492    3.079069
H   93.960373   12.200893   81.903458
H   16.222046   80.457664   85.946495
H    2.603551   47.138893    5.441040
H   15.120811   52.078354   87.300903
H   38.231560   52.000565   54.650230
H   79.570969   63.920044   89.836060
H   87.731171   25.013382   81.102463
H   95.598747   85.672630   11.947854
H   64.671089   43.508003   18.587858
H   44.825333   35.685482   24.896189
H   81.994484   26.613544   64.811119
H   62.295647   59.250927   82.270187
H   58.606590   35.552902   81.261421
H   72.602959   27.152428   40.476612
H   36.767639   63.988914    1.068367
H   12.029505   73.971901   58.369480
H   47.993450   41.071342   79.684914
H   86.452881    2.726665   53.672390
H   23.257561   29.445547   84.487221
H   77.358444   29.091906   25.277298
H   33.105335   27.760736   74.733383
H   95.554657   99.242058   96.606995
H   46.779602   30.123329   31.836407
H   76.652168   52.578892   21.200817
H   84.077286   91.798668   93.783722
H   17.046101   32.540478   98.815842
H   64.958885   46.284744   60.440407
H   37.726963   12.515073   59.902039
H   71.839752   39.116550   34.658394
H   36.992249   29.180336   17.216610
H   44.043446   20.624310   63.657810
H   88.192848   80.449852   38.563580
H   61.026047   80.074425   92.464561
H   62.220161   76.633614   25.623608
H   38.485603   96.325562   35.472744
H   36.913670   90.440781   40.113964
H    1.593464   19.197100   39.526138
H    5.495327   37.069527   43.284264
H   77.674080   32.339317   48.056957
H   51.145863   21.513569   23.325012
H   19.939331   83.292412   51.178825
H   37.598808   85.757698   19.073082
H    8.021733   18.919708   50.995430
H   93.706322   38.208134   18.666088
H   58.804058   70.612953   67.347031
