100
TIME:    1.861, STEP:  1861
H   91.470856   51.358109   97.442215
H   49.503166    5.644820   95.391624
H   11.743757    7.792143    1.489281
H   81.788971   55.977196   38.155453
H   78.502243   21.924870   15.245567
H   99.158089   99.191933   63.047710
H   55.434193   87.001122   35.985481
H   73.615364   49.601460   37.323349
H    7.881065    7.365826   82.944008
H   23.983412   43.104561   80.565117
H   27.149338   41.123753   60.487690
H   84.811111   16.972719   60.460930
H   24.884529   49.114357   40.160637
H   62.935738   99.339729   98.862038
H    3.136093    3.795473   61.317520
H   26.698318   48.959984   78.562271
H   74.445847    5.067909   42.793907
H   40.913231    4.200127   35.029099
H   74.248055   56.426353   61.405483
H   42.379005   66.291122   43.038155
H   53.842255   70.949585    6.733974
H   40.792728   46.556244   60.795219
H   60.896996   79.486824   79.104431
H   46.134468   59.001499   68.861160
H   63.023796   38.579697   50.292854
H   38.125805   72.155243   14.741036
H    1.602271   65.119766   36.895809
H   75.515610   43.304897   28.286638
H   51.636566   17.936544   69.201897
H   72.352470   44.780350   31.332272
H   89.308205   88.930313   62.148952
H   83.261932    1.097064   26.981956
H    1.443304   32.322121   65.450531
H   56.733070    3.173274   93.350769
H   34.513756   18.242989   38.049980
H   34.361797   30.674917   14.242200
H   58.292389   36.383156   55.104801
H   87.072731   24.892521   53.766087
H   67.058548   40.781136   63.760002
H   87.907951   37.962620   84.454056
H    8.063225   20.038935   86.188889
H   64.365112   95.379509   90.233093
H   27.270720   74.659805   35.895477
H   60.521721   43.961212   62.691799
H   95.227791   58.463215   15.360872
H   54.078068   98.412514   90.727303
H   55.730518   26.131044   43.525337
H   56.338802   14.544111   83.726082
H   19.429892   78.321007   70.239822
H   64.920586   59.075008   53.502941
H   43.402637   89.975685   73.038940
H   95.574684   91.052109   51.891674
H   47.484001   32.799438   94.785423
H   33.596226   76.843895   13.937445
H   92.605484   21.649824   16.198011
H   95.894760   10.576126   29.273972
H   14.231821   35.848808   32.984123
H   87.483246    1.138769   65.620560
H   37.049690   17.400198   68.614395
H   36.211697   70.831375   10.678664
H   77.093857   92.027290   69.296593
H   32.860626   10.622326   11.149146
H    0.462557   80.246849    5.886292
H   70.831909   51.917870   76.615868
H    6.187528   12.208699   68.873337
H   87.021187   49.757179   56.222195
H   38.257462   12.703126   56.911633
H   51.813820   23.970047   55.169163
H   49.655296   16.066727   43.514389
H   68.085022   41.746208   97.814392
H   62.937309   68.778313   39.827671
H   20.519438   89.761978   92.875237
H   85.650650   26.253849   14.029247
H   89.233910   31.611429   92.603798
H   51.896957   31.291681   42.474712
H   69.656349   26.844873   70.706902
H   35.921532   65.249008   23.961298
H   19.413494   29.034048   17.215305
H   50.756554   48.050632   38.441475
H    8.258442    7.599451   60.594368
H   47.300388   48.534557   91.216652
H   80.956238   56.381302   31.162268
H   35.548252   38.318573    7.150938
H   78.190620   71.409767   93.448120
H   61.714279   32.477615   67.349380
H    8.457798   77.413475   71.016716
H   91.446693   68.043060   12.282976
H   85.913589   56.298386   76.396706
H   94.302681   90.555061   12.974129
H    1.800509   32.708900   90.744316
H    0.182292   73.919189   72.762650
H   15.982439   35.470379   68.980354
H    4.689816   83.393600   62.887192
H   27.100368   26.115641   52.295540
H   24.416618   83.032623   58.850243
H   47.632568   22.242208   71.325821
H   14.885119   74.479515   30.161606
H   13.698098   32.082977   26.259853
H   20.059025   44.872334   89.163864
H   54.815750   30.901169   18.444843
