100
TIME:    2.059, STEP:  2059
H   78.080719   33.200455   97.260941
H   43.995445   16.380083    7.881218
H   15.147184   22.036537   99.165245
H   81.822205   47.819847   27.301975
H   76.728775   37.795444    9.877201
H   96.088509   98.977425   82.655632
H   45.057743    0.370142   51.469337
H   58.052956   66.730621   19.143036
H    3.013828   88.328857   70.481392
H   18.573126   45.947548   88.317619
H    8.731857   49.090763   41.416111
H   77.254990   26.897493   46.366844
H   12.289845   37.135139   20.481346
H   53.131813   98.729439   13.930340
H    5.544622   86.109253   51.799103
H   18.736931   31.641548   62.126724
H   58.526932   18.161964   60.820137
H   45.144478   94.571312   28.164417
H   77.332741   64.733124   71.837448
H   37.045006   62.086246   56.518929
H   42.092651   51.238033    1.359949
H   59.778202   46.817581   43.935188
H   58.253410   77.876503   73.439606
H   27.738136   61.376194   54.155769
H   55.942009   22.876801   51.753624
H   37.217922   66.254761   96.182396
H   84.529167   56.888599   40.824932
H   58.808624   52.546871   34.831074
H   55.941833   35.900246   59.842094
H   79.944847   39.879898   47.072903
H   97.096962    6.686403   46.482311
H   95.763824   95.625862    8.652092
H   15.390482   17.836014   83.287933
H   65.098885   85.027756   85.009125
H   29.591785    3.275443   50.106239
H   51.576824   46.229710   13.561666
H   77.283447   29.131880   70.706482
H   78.888191   21.268543   67.738213
H   58.163666   36.553459   44.779678
H   69.257835   19.426313    0.031570
H   94.531990   26.832949   90.853683
H   46.570007    4.265610   99.535492
H   28.976210   75.847153   50.196518
H   47.877831   47.280045   82.051804
H   78.052040   50.651798   32.304756
H   51.523609    2.189045   91.530952
H   57.814625   36.813591   45.219658
H   56.349377   16.582693   95.977211
H   25.217077   61.921909   62.341980
H   69.071770   62.088696   39.655087
H   43.387531   70.860298   75.126617
H    5.196932   72.679947   38.892788
H   51.591377   33.947510   83.286583
H   29.011494   73.614189   22.674116
H   76.843674   39.007908   17.877821
H   96.142502   10.368038   22.533585
H   26.783617   30.135643   51.815514
H   72.739594   82.440277   60.520706
H   52.664970   25.766768   53.413483
H   23.146343   86.049362    5.047450
H   89.583664   82.818550   53.859051
H   25.833885    8.778992    2.189913
H   13.893084   66.744926   92.302658
H   84.427490   52.994942   71.241081
H   14.046573   96.394745   87.311966
H   74.857674   39.913979   67.929497
H   22.371321   19.548319   66.470840
H   38.136665   35.294189   64.634705
H   59.524178    1.839720   31.095581
H   72.097229   51.705727   97.397461
H   56.650108   55.305626   37.452976
H    4.193685   83.190781    7.371599
H   72.740891   16.460499    8.952053
H   84.877281   19.081591   80.836067
H   61.442566   31.573412   57.484234
H   74.336250   39.535286   57.383984
H   53.899422   48.086960   27.463671
H   28.715893   16.087278   28.150684
H   60.247780   47.470554   40.650002
H   98.548012   96.816086   43.536446
H   51.175129   50.582958    3.050730
H   95.811676   57.674393   14.605116
H   48.075825   41.623810   26.009342
H   91.810371   88.352882   75.362976
H   52.073502   20.092041   48.155441
H    3.900427   84.685600   84.766380
H    4.670691   53.646851   21.724501
H   89.100998   40.445938   74.336220
H   98.411568   79.530556   11.354366
H   84.295334   24.562126   97.823082
H    8.285431   84.611359   76.944046
H   30.632864   50.361217   72.753883
H   17.393375   89.327316   78.204880
H   46.238415   38.126209   65.645073
H   20.992798   65.297943   63.400230
H   63.986542   14.423918   61.098923
H   99.168991   85.842400   18.774551
H   14.425084   33.768829   23.091328
H   10.627253   45.725834   72.577255
H   67.112198   25.815666   99.374298
