100
TIME:    1.480, STEP:  1480
H   17.236101   86.297836   97.791031
H   60.101357   84.988609   71.358208
H    5.194583   80.381416    5.962108
H   81.725021   71.673912   59.040806
H   81.914825   91.386055   25.575340
H    5.066172   99.604698   25.314806
H   75.402657   61.275639    6.190766
H    3.561218   16.641262   72.305992
H   17.246773   43.997482    6.925729
H   34.394447   37.633965   65.647423
H   62.589035   25.793293   97.188660
H   99.350922   97.875648   87.581367
H   49.118942   72.165276   78.028587
H   81.800865    0.514203   69.869621
H   98.501808   37.826794   79.630783
H   42.017151   82.284843   10.188107
H    5.077724   79.871750    8.106235
H   32.771286   22.728455   48.237595
H   68.312370   40.441864   41.334034
H   52.642914   74.383652   17.097879
H   76.451340    8.878128   17.074913
H    4.259841   46.053368   93.235390
H   65.983894   82.585472   90.004929
H   81.533470   54.432011   97.155945
H   76.650871   68.796333   47.481979
H   39.872791   83.509201   50.451744
H   34.456490   80.956009   29.335226
H    7.664204   25.521099   15.692931
H   43.352188   83.369324   87.212425
H   57.742901   54.210007    1.044810
H   74.320747   54.763794   92.298096
H   59.205265   11.623073   62.253059
H   74.607620   60.198326   31.127043
H   40.635216   38.089485    9.401550
H   43.984108   47.043556   14.850815
H    1.234576    0.744989   15.551713
H   21.750607   50.335793   25.083380
H    2.821367   31.865932   26.881100
H   84.185410   48.914360    0.275256
H   23.794313   73.631172   54.478214
H   34.099426    6.965634   77.212692
H   98.607208   78.281715   72.333023
H   23.988943   72.375061    8.375762
H   84.851631   37.574974   25.440908
H   28.276836   73.496109   82.757523
H   58.993465   91.145515   89.180885
H   51.707508    5.577393   40.269722
H   56.318455   10.621386   60.151943
H    8.293942    9.876373   85.436569
H   56.930126   53.275944   80.151329
H   43.431705   26.759367   69.021744
H   77.058372   26.405767   76.903183
H   39.580414   30.590271   16.913116
H   42.418362   83.058632   97.125687
H   22.936874   88.249680   12.964968
H   95.418045   10.976538   42.244110
H   90.077606   46.842323   96.747658
H   15.853363   37.120262   75.433914
H    7.002105    1.301522   97.862610
H   61.352604   41.546047   21.514854
H   53.060436    9.745936   99.004082
H   46.383057   14.169348   28.389168
H   74.621078    6.228083   32.024513
H   44.668564   49.845322   86.958260
H   91.065666   42.639126   33.390438
H   10.426512   68.697884   33.694500
H   68.825363   99.531403   38.517406
H   78.131981    2.179309   36.955158
H   30.665176   43.442963   67.410774
H   60.365929   22.582396   98.616669
H   75.035408   94.701149   44.397160
H   51.933750    2.406696   64.981590
H   10.492683   45.098629   23.799000
H   97.617119   55.723305   15.247795
H   33.528893   30.749563   13.591827
H   60.650005    2.426223   96.344872
H    1.328943   98.270248   17.221884
H    1.513420   53.948051   96.173965
H   32.493134   49.166843   34.191734
H   26.943649   28.349638   93.417946
H   39.844448   44.592937   68.444786
H   52.369595   53.893082   63.020828
H   11.442088   31.958506   70.862579
H   51.981586   38.807110   28.248329
H   80.265472   56.310463    4.283106
H   17.227612   63.420025   44.559029
H   66.000572   95.744858   94.115112
H   79.780243   86.802338   80.358772
H   86.396187   11.768445   16.090965
H   35.486397   48.385269   77.123055
H   84.590218   53.346371   64.716629
H   87.791969    6.816427   61.720085
H   80.243889   71.975693   33.412247
H   90.275154    3.005061   26.607849
H   31.004879   17.159828   50.094963
H   16.163559   37.286858   91.004852
H   45.126663   52.614574   52.073059
H   12.299201   28.838989   32.356781
H   38.208122   43.229992   21.078686
H   31.154404   40.688198   55.140816
