100
TIME:    5.767, STEP:  5767
H   27.323423   93.158958   93.866165
H   41.204018   17.368338   41.733486
H   78.890701   88.805435   55.650112
H   82.444580   95.049042   24.053593
H   43.516556   35.007904    9.338688
H   38.591145   94.960274   49.872074
H   50.720890   50.753956   41.439991
H   66.611465   87.520828   78.687416
H   11.864067   31.819946   37.074715
H   17.244284   99.188942   33.519108
H   63.822739   98.290527   84.242653
H   35.731018   12.760366   82.427956
H   76.062698   12.848392   51.983574
H   69.533531   87.300362   96.110542
H   50.646660   54.895676   73.559082
H   69.645187    7.326119   54.329803
H   60.359291   63.411526   98.381104
H   24.391356   14.215984   99.612343
H   35.090687   20.285387   67.188461
H   37.143555   83.344032    8.976740
H   22.054756   82.094360    0.718466
H   15.268250   51.739761   28.164932
H    8.745233   47.719582   67.349670
H   83.220802    5.818331   78.766174
H   23.322979   28.807831   79.130470
H   20.257082   56.173653   48.114555
H   64.785110    2.748647   14.391838
H   45.938778   25.623756   57.401321
H   36.569069   72.319397   84.563416
H   22.125469   48.106590   41.848190
H   43.023483   39.193584   53.112251
H   29.889011   93.177078   65.383980
H   76.577507   46.540855   17.333860
H   21.771194   45.211540   28.795923
H   37.420074   22.978807   75.897629
H   73.953140   37.125267    1.295061
H   32.929634   93.334595   62.882366
H   25.632259   53.416721   29.402782
H    1.643892   55.763359   85.447380
H   20.006842   72.296700   91.769920
H   41.117645   54.060921   78.213722
H   14.202775   64.218430   74.373924
H   60.915386   98.082932   18.030842
H   11.102030    9.441854   44.602425
H   56.410419    4.357011   49.608379
H    3.683178   72.913528    6.590258
H   86.789352   38.467606   80.823250
H   56.547405   54.768204   25.407171
H   33.604927   54.826042   14.425473
H   46.829151   18.508780   80.312302
H   43.105602   12.876745   14.220546
H   85.398308   28.604607   95.468269
H   28.496883   55.447754   67.931999
H   43.140106   13.107150   86.298729
H   81.617607   63.998318   49.399883
H    0.778530    6.467399   96.304504
H   61.853142   23.142647    4.477087
H   96.633209   32.266045   65.010727
H   45.107254   82.438728   68.748421
H   78.455811   71.059723   99.583397
H   23.487541   10.380327   64.753990
H   94.235817   74.263657   34.415863
H   65.583382   13.753117   38.009949
H   39.049156   73.178421   70.568008
H   61.226837    0.242957   32.625065
H   47.069969   55.578392   87.173378
H   24.871548   47.741566   45.493484
H   81.999535   47.358555   41.898548
H   44.329395   35.406487   98.535492
H   47.223076   38.205490   89.589478
H   38.905098    3.013933   92.968544
H   98.452103   60.129471   78.855148
H   30.972672   33.046654   13.880829
H    3.257464   84.425316   60.497856
H   40.221287   36.862461   38.576187
H   61.996994   77.184135    7.884089
H   90.561119   26.700510   93.040398
H    2.924479   73.631325   32.929657
H   38.061169   36.579227   82.025429
H   16.705936   94.863411   24.088848
H   23.723223   88.943924   24.668882
H   74.040558   81.870651    4.531059
H   82.650612    3.563714   79.163818
H   46.909737    5.653497   36.690517
H   71.524025   88.155602   88.706497
H   18.562206   20.884853   42.261276
H   52.319618   84.044899   98.536240
H   48.778221   43.592655   35.782936
H   75.364609   73.074989   81.024178
H   56.459126   72.007126   30.374239
H   60.032066   84.832748   55.250286
H    4.998498   29.212484   43.410110
H   55.129257    0.556567   64.975540
H    4.626397   63.050365   15.658872
H   56.883904   33.157001   48.605106
H   70.252136   67.999115   69.575836
H    4.845329   98.637199    5.523700
H   27.145685   71.808350   63.106628
H   33.986359   61.709568   61.991478
H   97.422501   30.644646   42.187572
