100
TIME:    4.656, STEP:  4656
H    2.456586   95.042488   94.883316
H   71.888069   57.166977   71.682495
H   59.787086    8.875552   68.692024
H   82.258102   40.823784   84.952034
H   53.467682   45.956436   39.460587
H   55.823376   96.163902   39.845486
H    8.950006   75.733688   54.558270
H   53.933876   91.405426   80.695686
H   39.174568   38.638046    7.007740
H   47.603630   83.236626   90.013000
H   67.165253   53.586750   91.260056
H   78.134911   57.071831   61.509804
H   46.958084   80.032417   62.378418
H   24.543140   90.724770   11.563098
H   37.135506   54.134583   26.962151
H   14.316284    4.498215   46.552673
H   49.699348   89.929245   97.242393
H    0.633521   68.271141   38.124950
H   17.787163   73.679413    8.659441
H   67.074089    6.940668   33.334724
H   87.983086   92.697418   30.872742
H    8.755600   50.264893   22.776840
H   23.579720   56.755272   99.135635
H   86.448624   92.523071   61.279030
H   63.058746   16.915070   70.925453
H   25.321646   89.012695   52.588581
H   60.587730   48.933590   92.349037
H   39.682041   73.766052   20.673700
H   12.411420   71.520775   37.079872
H   79.525253   75.603569   53.527046
H   99.296974   39.568043   41.011040
H   59.739880   23.872314   68.234810
H   98.319069   27.826811   17.246206
H   74.828430   47.028076   75.601524
H   65.035721    6.962196    8.247131
H   77.375900   50.106739    4.789527
H   26.370321   34.023911   75.339951
H   71.549538   73.747200   51.001659
H   48.542492   79.971550   93.111603
H   24.650618   76.304619    4.358309
H   17.047115   15.943189   52.039043
H   13.166069   20.821280   21.543596
H   51.345692   91.420593   37.781677
H   82.042130   90.798187   35.974220
H   52.781559   48.188301   54.537251
H   18.018917   51.722889    2.075004
H   78.109665   78.046715   70.160118
H   56.488071   43.325256   56.664818
H    1.132168   46.839199   58.746216
H   23.527920    1.598647   58.016380
H   43.189396   20.136837    2.508476
H   31.404596   31.697001   68.405334
H    5.450793   49.005798   32.455456
H   68.867149   31.237526   37.272057
H   70.077271   66.629646   39.948856
H   99.391922    7.636063   34.125580
H   91.422409   55.199852   98.811684
H   79.360245   37.186211   93.626572
H   57.484512   35.497040   54.040184
H   51.769909   85.663635   31.182869
H   53.404907   62.044659   51.376701
H   33.664085   84.604691   84.685059
H   90.156227   89.565720   14.194572
H   62.760033   67.126373    0.726735
H   17.126299   88.977081   29.162439
H   15.319870   10.809275   21.482382
H   14.008802    9.333508   91.853317
H   58.744011   83.818497   88.786324
H   88.956192   15.235855   68.217651
H   24.717241   82.326172   91.928925
H   74.183281   78.605560    6.294837
H   90.058746   97.001190   97.511955
H    3.411003   88.001930   42.369530
H   27.711941   54.739567   26.509605
H   86.655647   35.277401   54.354580
H   35.729073    5.978189   82.639450
H   89.689560   22.994877   73.392433
H   50.727673   46.276470   71.574409
H   84.784950   39.842587   69.633141
H   71.186127   55.379093   19.802544
H    1.982695   77.450119   58.266979
H   90.670235   74.634781   97.445213
H   12.376215   84.984070   73.358368
H   70.474274   10.582829   38.163063
H   25.621004   57.650536   96.405525
H   44.135075   80.077980   65.109970
H   78.118431   64.823792   45.559631
H   30.900240   32.523445   47.322792
H   52.309189   34.933037   90.110725
H   54.686314   17.714394   90.658386
H   14.565421   24.842827   31.788004
H   22.795294   45.655182   22.244661
H   83.912209   67.222725   79.060165
H   97.247299   95.653214   40.748669
H   76.091103   32.673592   23.076099
H   78.488083   11.871504   26.960686
H   93.031273   34.878796   69.418076
H   23.956213   55.880737   81.529915
H   86.912109   56.920483   55.049011
H   28.413179   59.150501   49.213474
