100
TIME:    4.302, STEP:  4302
H   26.395245   27.505920   95.207413
H   81.664986   37.983154   49.361267
H   53.702171   83.407402   72.845863
H   82.198685   55.408134    4.355033
H   56.638428   17.581774   49.059250
H   61.314114   96.547417    4.787159
H   27.502934   51.830181   26.875010
H   81.757576   60.778576   13.198008
H   47.876564   72.673599   29.291010
H   57.277916   78.153709   76.152466
H    0.093476   39.342701   25.359406
H   91.644341   39.327538   86.708321
H   69.547623    1.439089   97.553711
H   42.070793   91.815895   84.624130
H   32.830421   85.755615   43.979527
H   28.550880   35.460503   75.937439
H   78.165840   66.513260   65.016380
H   93.066856   85.494286   50.398067
H   12.273468   58.829445   90.008820
H   76.613335   14.458361    9.232737
H    8.989929   27.939617   40.479668
H   74.817276   49.794952   52.923233
H   28.306129   59.634331    9.264277
H   19.339119   88.277405   87.568954
H   75.720123   44.989944   68.311073
H   26.935377   99.475616   85.877785
H   91.112541   63.650280   85.326942
H   69.550751   57.242523    8.971515
H    4.713449   39.402798   53.814064
H   65.951004   84.364983   25.384968
H   85.366219    7.824618   69.018394
H   37.388012   33.651932    1.006382
H   73.385231   53.727318   85.355087
H   59.871368   79.470154   90.515373
H   73.834946   33.722008   86.690323
H   46.602924   22.380268    5.903272
H   92.416916   46.987778   47.446033
H   86.182503   80.223732   26.021908
H   63.486050   87.685051   27.416220
H   57.992363    9.444076   76.507385
H   41.240097    3.797551   43.698956
H   44.981888    4.933161    4.913360
H   48.296482   89.297760   12.212206
H    4.647642   84.867218    1.361889
H   83.488731   62.154167   24.244669
H   22.585979   44.970875    0.635912
H   75.344040   58.795372   66.762505
H   56.469166   39.679169   34.761284
H   90.782944   76.157562   72.867035
H   16.103405   96.212440   82.776711
H   43.216404   54.313301   98.776413
H   14.201815   64.546844   91.643066
H   98.108345   46.953186   53.016689
H   77.066795   37.014549   21.651493
H   98.262878   35.605259   36.937458
H   98.948990    8.008444   46.176575
H   68.978714   65.414299   65.143440
H    5.719983   70.616783    2.744749
H   29.566282   20.538944   81.216682
H   75.130463   58.455166   41.251472
H   31.074591   78.508446   78.977699
H   46.228233   87.899673    0.700936
H   66.124458   13.722117   38.469414
H   38.450081   65.197998   10.338902
H    3.075238   17.250031   96.195213
H   37.066353   28.407539    0.551603
H   42.411331   97.094788   74.762619
H   83.197105   63.573257   71.863075
H   71.314529   40.672043   90.418274
H   17.545252   64.522461   92.674347
H   85.424034    2.691425   10.541718
H   19.247860    8.749980   71.595024
H   26.493376    5.513103   51.446938
H   35.506466   77.141167   47.543480
H   69.586555   34.772350   27.519148
H   27.359278   83.290977    6.460069
H   57.549431   53.678333   67.131966
H   34.096111   69.424446   52.024323
H   67.807686   40.882397   65.684563
H   88.546906   74.658653   50.300041
H   95.057175   73.787827   37.108868
H   64.110512   72.322891   27.047258
H   89.983772   79.066467   39.644299
H   46.120392   80.290352   70.494949
H   42.858047   79.792519   30.721664
H   52.283405   67.076302   40.527237
H   54.475578   90.562469   28.679594
H   25.202890   60.865700   51.003990
H   44.962997   54.643517   93.005989
H   85.984055   32.279839   78.002411
H    0.078126    5.727915   24.312174
H   96.600861   19.033340   15.499399
H   61.220039   56.599640   51.684795
H   63.033413   74.181808   16.880793
H   82.211128   64.383720   14.942534
H   49.249161   25.849724   45.245140
H   21.129826   14.563384   89.776749
H   22.657125   52.866638   87.196205
H    3.775865   55.394527   84.699272
H    6.425651   68.234566   83.315018
