100
TIME:    4.867, STEP:  4867
H   88.187416   75.692665   94.690140
H   66.060585   68.600754   84.985901
H   63.413971   24.055183   66.216148
H   82.293518   32.130852   73.387215
H   51.577774   62.869019   33.739349
H   52.550648   95.935310   60.742329
H   97.891502   89.980438   71.058746
H   37.349693    9.659883   61.323101
H   33.987785   18.351318   93.726234
H   41.837318   86.266273   98.274506
H   47.538544   62.076847   70.934692
H   70.082680   67.648232   46.490349
H   33.493698   67.273125   41.412354
H   14.096255   90.074409   27.620874
H   39.701530   35.287018   16.819592
H    5.831873   86.043350   29.037888
H   32.732033    3.885878   16.450560
H    5.145523   58.004765   30.810141
H   21.073574   82.530106   19.775126
H   61.389008    2.459784   47.700600
H   75.462044   71.692719   25.145870
H   28.984375   50.544998    4.808263
H   20.762566   55.039223   93.098877
H   66.844452   95.051727   45.607605
H   55.511993    0.181175   72.483742
H   24.359789   82.776321   32.747768
H   42.392136   40.161777   96.534523
H   21.878780   83.614822   27.648973
H   16.999672   90.664543   27.105934
H   87.616119   70.381371   70.301186
H    7.601400   58.488049   24.317390
H   73.062599   18.043221   48.701469
H   13.181831   12.389612   36.254753
H   83.743515   27.691132   66.712196
H   59.790985   91.012100   21.094963
H   95.717987   66.632973    4.125685
H   46.607368   26.296265   91.965988
H   62.827847   69.886894   65.890923
H   39.635456   75.373955   72.663895
H    4.776804   56.551735   20.959394
H    2.627236   23.182470   57.010113
H   94.202232   30.290941   31.455149
H   53.163158   92.685898   53.021675
H   68.568085   94.335266   56.604996
H   34.479717   39.864014   72.592796
H   15.296637   55.747395    2.932727
H   79.758102   89.521385   72.185249
H   56.499340   45.498489   69.720314
H    7.299515   29.364796   50.328560
H   27.953266    4.810202   43.259323
H   43.173298   99.765625    4.732821
H   41.658989   12.117781   54.553497
H    9.827559   50.229248   20.200808
H   63.979797   27.794159   46.583153
H   53.277374   85.123055   41.743786
H   99.655930    7.414111   26.942642
H    4.799430   49.111580   18.879784
H   63.648575   17.259481   88.191879
H   74.126015   44.412125   37.840744
H   37.846729    1.880950   25.181526
H   66.714752   52.232914   34.926132
H   26.175913   82.640732   75.138931
H    4.480523   75.167648   99.725647
H   77.248390   68.275772   94.998856
H   25.501295   72.125671   48.811802
H    2.358534    0.320199   33.958351
H   97.079529   16.627960    2.040286
H   44.168861   95.885574   98.873344
H   99.471420    0.074757   54.983978
H   28.992071   92.937988   91.484619
H   67.483284   64.249344    3.763614
H   72.660004   89.998550   12.960319
H   89.653458   77.563972   36.958984
H   23.067204   41.386257   13.973034
H   96.829597   35.578434   70.349579
H   40.717850   19.501364   68.440994
H    8.846643    4.706718   77.123955
H   60.640835   32.478855   83.226158
H   94.904167   39.222813   71.986671
H   60.838318   43.886715    1.624917
H    6.111636   79.633011   70.878166
H    6.501546   76.012772   79.801781
H   25.723085   88.512756   93.451920
H   84.991470   28.639055   18.892120
H   15.346467   44.451767   75.951378
H   39.278301   87.827568   79.762390
H   92.210640   49.482376   55.620895
H   34.296661   15.630951   45.128632
H   56.687851   23.185305   88.385017
H   36.030315    9.032730   98.201920
H   23.200401   36.235905   36.243938
H   38.407612   61.524139   26.264570
H   97.437767   73.555687   95.377121
H   17.641411    8.451768   54.974491
H   72.443291   13.772903   27.924019
H   95.915802    3.539672   16.062325
H   76.282890   46.987728   57.283386
H   24.730528   57.677277   78.152550
H   76.860504   57.830021   37.374992
H   41.518581   53.736736   28.886625
