100
TIME:    1.687, STEP:  1687
H    3.237818   67.314835   97.601517
H   54.343285   96.211006   84.415733
H    8.752867   95.274071    3.531983
H   81.759766   63.145775   47.693645
H   80.060745    7.978002   19.962944
H    1.856142   99.380440   45.815243
H   64.552971   75.252617   22.378456
H   87.291420   34.548771   53.299988
H   12.158318   24.095337   93.896004
H   28.737906   40.606178   73.752312
H   43.334396   34.122440   77.248611
H   91.451340    8.251244   72.846642
H   35.952446   59.641548   57.454170
H   71.551308   99.876045   85.621407
H    1.019454   19.337566   69.681290
H   33.694321   64.179924   93.005630
H   88.435196   93.560989   26.952463
H   37.194862   12.661963   41.061325
H   71.537270   49.126350   52.238995
H   47.066460   69.986923   31.191416
H   64.167664   88.270996   11.456608
H   24.108524   46.326584   75.610573
H   63.220146   80.901955   84.082611
H   62.300941   56.914646   81.783188
H   69.247185   52.379211   49.009148
H   38.923641   77.340515   31.050192
H   16.606518   72.352066   33.442944
H   90.197922   35.183163   22.535181
H   47.853149    2.150123   77.427177
H   65.680382   49.086807   17.500233
H   82.463539   73.326706   75.917755
H   72.275421    5.904160   43.090019
H   89.187576   45.052986   49.775238
H   49.381294   19.119118    0.681263
H   38.838799   31.396004   27.455086
H   19.232880   17.006163   14.840245
H   41.604202   42.755226   41.394230
H   94.265205   28.077229   41.487904
H   74.880264   44.495522   80.436264
H    4.297255   54.252552   70.764725
H   19.953773   14.068439   82.089523
H   80.003235   87.571068   82.058258
H   25.771955   73.616379   23.327438
H   71.633018   41.044662   45.679699
H   10.321159   65.328049    0.470800
H   56.322895   95.093727   90.021065
H   53.893238   16.744188   42.038521
H   56.329510   12.752630   72.959938
H   14.344182   92.732506   77.180069
H   61.271580   56.426617   65.672447
H   43.415913    6.774309   71.204315
H   87.118416    7.197709   63.314938
H   43.874489   31.790527    4.890812
H   37.625233   79.682121    6.259764
H    6.457268    6.395999   14.721527
H   95.677048   10.758991   35.197342
H    3.201170   40.869469   16.435324
H    0.439780   17.571178   70.102249
H   23.327171   10.048026   81.971848
H   47.693371   57.457340   15.627307
H   66.117966    0.119802   82.863792
H   39.036224   12.242226   19.022430
H   88.660919   92.112175   17.823586
H   58.883705   50.971352   81.339165
H   99.281105   26.105877   52.668766
H   97.710335   58.407265   45.933956
H   52.217606    6.687789   48.511120
H   63.833138   14.018334   46.850956
H   40.982643   28.569260   54.427887
H   64.559143   32.993904   98.180786
H   68.462425   80.617088   41.914524
H   34.866421   95.536667   80.136406
H   96.995590   34.860126   18.491024
H   93.062462   42.623138    2.945159
H   43.508392   31.044100   29.284389
H   65.543709   15.693087   82.415581
H   20.123278   80.329575   20.883455
H   11.238658   40.412003    7.605709
H   42.415779   48.560398   36.500648
H   16.792007   17.075914   75.584663
H   43.895313   46.734447   80.816902
H   67.901459   55.244949   45.711868
H   24.539173   35.413971   90.578369
H   66.221748   56.520367    9.341133
H   70.186478   43.361908   84.216782
H   12.462910   71.022820   58.933678
H   79.825630   80.694275    3.985758
H   83.112534   70.229324   78.207436
H   90.691841    0.243253   14.397556
H   17.184708   39.868187   84.523582
H   93.061501   64.523041   69.088089
H    3.107927   22.384226   65.664223
H   93.525673   78.179123   49.426193
H   10.282198   15.561234   40.564293
H   27.425430   98.617645   54.851768
H   33.260895   29.112761   80.313095
H   28.695946   64.493950   40.168411
H   13.059232   30.601471   29.044315
H   28.347363   44.122288    3.739671
H   44.009781   35.370747   35.203926
