100
TIME:    6.321, STEP:  6321
H   89.859207   42.354210   93.358963
H   25.904263   47.390476   76.665504
H   88.417648   28.661575   49.145245
H   82.537567   72.224945   93.686890
H   38.554428   79.413452   94.317764
H   29.998295   94.360085    4.735725
H   21.687042   88.161613   84.763512
H   23.068161   35.448597   27.820484
H   98.245628   78.554962    2.201728
H    2.110640    7.144069   55.210453
H   12.291000   20.581457   30.879112
H   14.584915   40.529560   42.992989
H   40.710709   79.346870   96.935234
H   42.102348   85.592781   38.271305
H   57.380867    5.409943   46.925114
H   47.370560   58.871254    8.342565
H   15.810031    0.056816   48.813911
H   36.238750   87.259323   80.406288
H   43.717350   43.527924   96.377945
H   22.219131   71.576942   46.695671
H   89.179626   26.941738   85.680031
H   68.380768   52.475204   80.986755
H    1.347870   43.213936   51.499603
H   31.745598   12.445772   37.620914
H    3.509735   84.872894   83.221901
H   17.731638   39.795250   96.019127
H   17.011627   79.721329   25.385290
H   99.194717   51.482613   75.712845
H   48.615120   22.582500   58.374878
H   43.367802   34.395226   85.890244
H   64.828789   88.871925    9.281532
H   64.869049   77.868027   14.097389
H   15.599522    6.008280   67.242554
H   45.179497   94.440872    5.458227
H   23.644058   81.081673    9.624911
H   22.111284   80.516411   99.553017
H   86.065041   73.046509    6.535422
H    2.735228   43.276905   68.495872
H   78.261627   43.691948   31.760042
H   67.825027   20.432201   35.357372
H    3.256545   73.070335   91.265724
H   67.514511   66.390945    2.658665
H   65.685822    1.405612   58.045601
H   75.725769   18.740561   98.770103
H    8.356201   82.497269   97.014877
H   96.532890   83.480240    8.840967
H   91.117477   68.595413   86.140419
H   56.576992   60.474228   59.685581
H   49.797356    8.945381   92.326340
H   58.451481   26.941828   41.567673
H   43.067562   59.391830   20.060032
H   12.322456   77.198273   59.101875
H   39.989239   58.660034   35.754765
H   30.312119    4.067328   10.744956
H   37.507927   12.546838   54.112637
H    1.468557    5.884645   77.445038
H   96.976631    7.156741   57.167168
H   55.380768   79.946922   50.741440
H   88.800888    5.846898   26.219521
H   41.897545   13.640615   83.826317
H   58.434284   84.615738   21.561428
H   74.573280   69.107101    9.347678
H    3.192624   75.949257    0.020507
H   77.092087   76.196274   55.527081
H   83.214584   55.997234   84.215981
H   13.037884   28.037315   19.930693
H   80.422623   66.893311   72.239944
H   43.731133   79.041786   68.382950
H   71.941109   95.599594   63.792118
H   58.444923   66.071709   88.422913
H   21.312351   65.320282   86.324196
H   52.771137   41.743393   19.415451
H   94.849701    5.645058   99.675110
H   91.060310   49.362507   27.580721
H   66.930168   37.652851   80.572525
H   75.091911   12.689156   70.605316
H   40.864834   78.702415    2.845401
H   28.952404   37.405533   63.526627
H   64.625984   34.951954   88.204842
H   89.537613   64.684883   76.361412
H   34.564667   94.675308   57.780262
H   15.620132   85.463470   58.188786
H   17.691841   12.827790   31.923546
H   85.024086   53.060936   86.091454
H   44.549324   53.503960   35.002243
H    5.810390   41.235184   80.732559
H   89.320015   43.764595   24.953146
H   57.688072   99.260559   30.038872
H   86.861191   42.228645   76.493172
H    7.476953   49.214100   50.176430
H   82.704002   14.748074   66.949753
H   45.988888   70.878998   53.964142
H   90.641861   17.180073    7.817210
H   58.166698   96.660957   53.014297
H   47.306236   83.532974   61.335880
H   16.010315   46.121796   40.961182
H   60.871025   30.428831   73.662766
H   26.076334   99.222626   51.986221
H    7.595269   64.097816   15.586708
H   31.832720   16.428192   88.818367
