100
TIME:    7.800, STEP:  7800
H   89.840324    6.723994   92.004898
H   85.060013   27.534344   69.921341
H   13.845797   35.066666   31.779434
H   82.785812   11.290104   12.617615
H   25.304308   97.961739   54.214874
H    7.059278   92.757774   51.206665
H   44.171726   88.030792    0.423311
H    6.821678   63.399914   92.023369
H   61.888985   36.355270    9.104298
H   61.714088   28.381441   13.120422
H   74.718033   80.092606   88.413971
H   58.138916   14.664064   37.716072
H   46.369667   89.862411   49.963902
H   68.871880   81.034096   50.824322
H   75.344795   73.298386   75.798859
H   87.901642   29.512573   85.572540
H   96.877327   97.881073   83.453125
H   67.866074   15.290800   29.139721
H   66.749084    5.571280   74.295227
H   82.370773   40.171200   47.392860
H    1.413669   79.702881   45.537197
H   10.173936   54.438599   55.036224
H   81.600960   31.185709    9.182487
H   94.325287   30.138887   27.777637
H   50.611153   67.582138   94.144691
H   10.829708   96.159470   56.868477
H   89.476242   18.239645   54.734646
H   74.399773   20.517324   24.598349
H   80.774162   56.768909   88.462425
H    0.080547   97.789108    3.466620
H   23.033983   21.497044   92.267906
H   58.254025   37.005291   77.179008
H   19.778116   97.797737    0.482552
H    7.669948   58.899239   43.149078
H   86.835121   69.100578   99.609146
H   50.678181   96.357910   94.904060
H   27.920822   18.882544   23.074675
H   41.603691   16.206890   72.864906
H   15.830533   11.468798   88.434654
H   28.520962   81.973663   51.722931
H    2.177319   23.820089   26.109098
H   42.872490   72.190857   78.163292
H   78.414032   10.277740   64.874367
H   81.287003   43.565086   43.377857
H   80.063148   24.144779   23.577290
H   77.440575   11.687911   14.849630
H    2.673791   49.028999    0.335743
H   56.663692   75.707458   51.197338
H   93.033455   86.454231   33.328377
H   89.502686   49.454426   38.156303
H   42.966007   16.603868   35.650024
H   84.208298   39.956684   62.015411
H   70.667641   67.235779   49.859291
H   96.064270   79.940964   76.009048
H   19.747383   42.159752   66.691742
H    3.310650    4.328880   27.096390
H   90.738403   64.480721   97.832253
H   45.251389   40.273903   12.644462
H    5.443390   68.347038   12.679893
H   44.298691   27.321995   41.760033
H   51.730816   15.835823    6.247373
H   22.080696   55.340775   42.429344
H    3.602048   75.024933   98.601044
H   78.652397   84.252960   15.367816
H   41.918472   37.871220   21.949160
H   22.181519   54.512199    7.380952
H   61.759949   18.029171   43.646709
H   41.566490   63.627739   39.087708
H   45.653870   89.328087   71.031372
H   88.438698   40.417660   85.299927
H   74.347069   64.690247   68.585945
H   30.956680   92.608788   27.783384
H   98.416031   32.492786   61.760494
H   58.496960   55.756611   39.703552
H   38.204407   39.800282   92.703033
H   10.052033    7.479214   71.087349
H   75.189171   50.691399   29.075045
H   98.438507   40.699337   45.205173
H   35.551285   30.607662    4.704317
H   17.006035   84.116203   48.944191
H   63.512947    9.976937   46.178253
H   26.602570   95.054764   34.456440
H   11.241708   37.561680   72.776260
H   86.776741   79.621948   51.007092
H   72.534927   60.982632   91.630577
H   71.776535   95.560486   83.438797
H   88.099144   36.228935   95.477364
H   81.474480   80.910706   14.704086
H   17.556187   59.880608   64.396858
H   76.714478   88.362320    3.049297
H   43.230854   94.609596   98.183517
H   55.419910   82.114120   82.147240
H   85.448608   61.559551   22.190554
H    1.106279   86.389854   52.740780
H   21.734711   51.053810   95.322906
H   38.169632   87.718933   64.568764
H   43.474754   15.305522   88.603325
H   23.221514   72.402306   22.296503
H   37.138908   70.484489   91.705116
H   23.699633   78.471970   46.341953
