100
TIME:    3.506, STEP:  3506
H   80.225983    0.503350   95.936172
H    3.743881   94.834030   99.157486
H   40.019707   26.139339   82.186134
H   82.065079   88.202324   47.987942
H   63.768127   53.778866   70.642685
H   73.655769   97.409782   25.956678
H   69.219444   98.078636   64.626701
H   44.321609   91.915848   86.284630
H   67.443764   49.205826   79.397285
H   79.031395   66.724327   44.982132
H   74.135452    7.314105    2.034188
H   22.025848   99.428543   43.367760
H   20.246082   49.589569   76.660667
H   81.484550   94.269386   24.048046
H   23.147285   56.857162   82.242592
H   60.555908    5.081457   42.013039
H   42.175545   13.866092   92.553360
H   76.062462   24.204048   77.996765
H   99.875877   25.434031   48.071003
H   98.063164   31.362551   55.037407
H   56.225708    7.183365   62.081322
H   98.503983   48.738251   20.709961
H   38.933876   66.108147   32.040604
H   93.296089   78.730652   46.687984
H    4.190074    8.115303   62.432411
H   30.581861   23.142889   60.552689
H   59.753452   96.736038   69.537148
H   36.715870   20.087921   82.661736
H   87.405075   67.183731   91.442360
H   35.428116    4.066081   62.105469
H   54.039761   36.445438   31.995384
H   87.128273   55.642258   74.696083
H   17.315054   11.966843   13.645123
H   26.238586   52.418739   24.048435
H   93.620773   93.893272   38.218880
H   77.390526   59.900875    8.584798
H   16.070366   76.138168   84.724480
H   19.083206   94.786781   69.849159
H   97.081970    5.028650    4.555109
H   32.967709   83.963425   13.878645
H   95.642014   76.481979   24.945539
H   16.521873   69.211060   67.516098
H   41.440067   84.524384   54.714901
H   55.477051   71.530914   23.532370
H   52.535503   93.563354   56.128841
H   32.855419   29.788380   97.404091
H   69.125290   15.505887   59.118797
H   56.426655   31.480814   85.509361
H   67.511215   42.082214    4.617286
H   99.408958   84.102882   38.449841
H   43.277134   31.162228   90.383530
H   75.517929   38.408569   43.900150
H   81.601936   42.337708   99.245796
H   95.504417   50.004692   86.527130
H   61.640396   65.841736   30.166887
H   97.953018    8.846518   73.274292
H   18.517572   88.382378   89.437141
H   64.992180   45.789398   23.249268
H   66.786476   86.905380   42.325809
H   27.659157   97.269989   63.891609
H   80.861641   15.527532   41.040104
H   74.479820   95.308731   36.719368
H   12.082208   68.039970   93.053520
H   83.790520   60.866272   31.952702
H   71.483147   80.825935   22.067789
H   85.966133   67.979195   53.485886
H    6.275232   69.571960   36.332684
H   38.182472   18.049135   33.809673
H   31.640755   97.867538   40.342770
H    1.418466   24.483831   94.350494
H   10.700495   56.851692   20.091507
H   84.881271   35.167938   13.314223
H   78.393539   44.884350   71.855949
H   53.033138   27.512394   94.839989
H   31.210337   33.636700   67.176552
H    8.539659   32.274017   60.019039
H   85.277199   22.669518   53.054752
H   96.698578   21.471384    8.062166
H   29.638288   43.220501   56.800919
H   27.584602   18.009003   18.876053
H   79.486008   65.552841   89.534561
H    4.382878   67.124405   93.607544
H   39.623531   65.778748   63.829075
H   91.357437   12.174807   43.197540
H   81.615921   29.582104    7.885040
H   70.603455   37.835457   85.250397
H    1.312532   48.438164   90.722839
H   12.391901   24.595337   59.281487
H   28.443790   98.964256   99.516243
H   56.361767   65.031326   49.547424
H   67.502563   62.743885    7.502114
H   37.702217   59.175835    0.331096
H   10.195834   32.714539   90.128807
H   86.095955   25.897068   63.208794
H   95.972542   35.683681   96.651909
H   83.502792   57.282967   86.359337
H   84.312775   68.882774   35.556602
H   19.736013   46.089172   99.937355
H   41.695580   51.963284   51.373322
H   56.980854   88.664131   59.996490
