100
TIME:    5.438, STEP:  5438
H   49.572426   23.329288   94.167374
H   50.290474   99.539795   20.988419
H   73.233002   65.135468   59.513111
H   82.389359    8.604210   42.087898
H   46.463379    8.637102   18.258694
H   43.694118   95.316704   17.289412
H   67.963142   28.537319   15.711762
H   92.470215   59.057064    8.894164
H   19.951515   63.451859   57.785309
H   26.233557   94.464989   20.635328
H   94.425522   85.052414   15.934158
H   48.288902   96.269676    5.846656
H   97.056931   32.744423   84.674736
H   85.823891   88.314430   71.075096
H   46.645607   84.283585   89.372528
H   82.873260   36.101761   81.639374
H   86.815437   41.651722   68.430939
H   17.355627   30.223961   11.016909
H   29.967133    6.482543   49.855961
H   46.006615   90.332069   86.576973
H   41.578087   14.846848    9.648033
H   83.726700   51.303009   56.182343
H   13.138484   50.395317   76.762436
H   13.789028    1.882540    3.199417
H   35.089264   54.900017   76.700722
H   21.756849   65.899689   79.052399
H   93.153931   16.425270    7.863765
H   73.698524   10.267143   46.525185
H   29.415367   42.469639    0.115805
H    9.510786   56.249260   15.694035
H   30.074215    9.691907   79.141685
H    9.115873    2.268002   95.841179
H   53.403385   70.612434   87.694939
H    7.869534   75.362511   42.656242
H   45.597885   47.849045   55.863266
H   45.353397   11.355986    2.329734
H    1.374384    5.383442   36.958355
H   39.229313   59.438381    6.186897
H   15.531604   62.932121   17.329679
H   50.994152    3.095459   65.886070
H   63.602859   42.773132   70.462624
H   42.884026   55.919403   58.277409
H   58.081516   96.110016   94.266762
H   32.108959    3.919467   12.435172
H   84.949257   17.337151   21.454954
H    7.928661   66.638351    5.253645
H   84.219040   20.575020   77.665581
H   56.529835   51.379608    5.050544
H   23.988846   82.074524   27.549454
H   39.928967   13.501188    3.324289
H   43.129734   44.639938   10.752255
H   69.409157   59.134457   17.066811
H   21.672001   53.540100   87.038658
H   50.758171   18.475853   71.780479
H    7.812991   35.165134   46.601154
H    0.368728    6.813475    7.504456
H   40.996964   32.635735   73.186470
H   21.130821   63.335701   73.484726
H   19.160650   68.537956   94.004753
H    0.167904   45.771458    8.940926
H    2.733421   25.680233   90.406914
H    5.912135   77.325943   49.303093
H   43.246441   36.204147   60.570465
H   16.456871   71.386230   79.498840
H   48.166939   26.519722    1.985912
H   67.281059   71.934013   67.720329
H   51.267792   36.368435   29.609566
H    4.725846   28.542833   26.170446
H   27.931105   59.046333   19.170143
H   40.558838   21.657379   90.282257
H   49.352013   25.399109   96.914375
H   25.579460   71.048279   54.767548
H   52.423798   49.319443   22.317177
H   10.499035    5.248477   80.046288
H   24.359545   36.393078   13.635201
H   54.218285   56.098602   30.021429
H   60.690998   55.217190   87.222054
H   87.467453   95.142632   14.759299
H   22.285374   37.545605   78.355705
H   32.837532   12.784873   52.432648
H   17.284891   85.540268    5.005893
H   49.347969   79.737091   32.052505
H   61.841866   98.061951   47.831821
H   24.275999   77.500412   66.738800
H   87.543297    8.733994   20.599159
H   26.135090    8.800117   19.414612
H   30.346457    7.965996   82.848297
H   43.486992   69.920227   39.194122
H   68.537216   91.393486   83.714973
H   85.546478   85.541428   18.613302
H   46.568047   67.066467   48.302410
H   80.655830    4.469213   37.142464
H   34.039642   90.686836   39.533466
H   72.829048   43.090282   93.475197
H   62.571724   62.627743   41.044773
H   43.078110   80.991241   86.569016
H   30.959120   79.756447   24.444962
H   26.825949   62.539001   69.012856
H   49.659241   60.291378   89.547218
H   76.985504   39.086216   73.881454
