200
TIME:    0.533, STEP:   533
H   18.474482   61.502590   20.349695
H   30.575806   37.155628    1.791867
H   11.996637   81.962715   59.780022
H   27.719118   80.398415   36.837818
H   12.099287   91.155289   49.445866
H   80.086792   44.862514   56.876949
H    7.604270   55.096237   55.322605
H    9.454593    1.538693   14.672110
H   99.327576   83.113640   40.571686
H    0.547087   70.794670   84.515373
H   22.406263    0.853297    2.220742
H   31.989395   49.843433   26.703053
H   18.365498   96.731926   49.283043
H   90.554947   54.443119   56.384670
H    5.475803   74.200119   42.257671
H   20.759995   13.894020   48.002377
H   97.990967   21.441137    1.206442
H   29.604650   97.252373   38.304031
H   74.774055   19.094324   46.797062
H   90.988419   75.680931   26.112591
H   61.601379   91.384560   12.416896
H   83.506096   60.013786   59.283623
H   86.231216   60.411110   42.105835
H   14.814296   90.730499   90.667328
H   15.981834   24.488024   34.955326
H   18.418550   75.339531   97.279449
H    4.569834   64.675896   60.862488
H    1.234513   82.216309    1.502238
H   23.409187   47.623848   36.622684
H   79.809074   28.613438   88.490540
H   12.978957   63.690372   16.553038
H   26.597946   70.373520    0.816843
H   20.043747   15.290240   76.758049
H   86.729332   63.897583   43.411629
H   33.927692   77.694016   31.990379
H   23.490337   43.241421   82.836304
H   94.674088   68.105019   88.154579
H   18.422132   52.334480    1.993586
H   42.226265   35.908707   50.944508
H   87.272835   38.483601   52.251068
H   80.591492   91.536552   11.249630
H   27.923143   36.962856   31.143152
H   71.426285   81.051102   61.208035
H   36.628525   77.464531   29.227390
H   38.788120   85.234566   54.937416
H   36.936573    6.213225   45.874458
H   85.495621   11.857398    2.603180
H   82.982620   65.546135   37.114395
H   98.411674   17.633221   61.377579
H   51.632195   19.123751   93.316734
H   71.238220   66.787567   16.256882
H    9.937734   40.741070   69.841118
H   60.078762   86.040558   11.758950
H   18.045862   88.366852   86.042099
H   64.796829   69.868706   81.297440
H    1.549603   65.131912   88.242615
H    4.594300   17.854225   46.511600
H   70.609787   65.390694    0.015143
H   21.998569   80.137527   14.213022
H   36.326637   94.343910   61.577827
H   49.470585    9.659897   33.675991
H   95.202171   17.118979   51.312119
H   79.519386   31.276173   74.999924
H   31.225149   65.570358   10.209347
H   76.058388   80.447067   29.910854
H   27.246094   27.944405   38.129929
H   75.230568   16.981630   91.888618
H   95.700630   92.116081   93.072449
H   26.944538    9.812722   58.271255
H   43.550346   46.736786   50.966946
H   58.336628   81.659813   81.118698
H   23.905798   16.120277   42.713837
H   86.793106   30.728542   89.684532
H   17.410896    2.524349   69.102516
H   82.712753    5.614567   53.835869
H   60.719681    8.732428   60.962841
H   94.189163   40.857891   68.001122
H   15.702880   11.305309   37.948418
H   13.758148   42.747215   28.449055
H   63.861115   89.032860   80.366302
H   55.803699   25.150051   96.783768
H   39.520027   63.321236   78.799339
H    9.856579   16.880264   81.706909
H   15.119354   71.440575    3.401083
H   28.474430    2.422194   49.478756
H   32.921970   75.522720   21.683498
H   48.987148    3.394656    2.443053
H   72.894890    7.639228   22.493509
H   74.653854   72.770393   78.226013
H   21.976582   99.180206   51.642040
H   28.960485   37.422165   79.451241
H   82.014496   91.106186    4.761031
H   61.178490   13.557600   87.385033
H   46.889229   83.907089   77.149918
H   32.549225   52.962814   80.142899
H   57.138252   34.260174   15.285408
H   83.280159    4.144876   10.947957
H   98.840027   32.991566   51.367718
H   30.378731   66.842934   53.919598
H   72.298935    2.688408   27.321939
H   22.938810   88.527527   82.736763
H    1.467597   81.089394   64.248398
H   29.253012   26.462036   34.597206
H   35.954933   68.480453    1.797783
H   24.950336   23.622234   34.586922
H   99.022659   12.427681   30.173084
H   79.537979   33.734917   54.895630
H   63.024826   45.524090    7.411771
H   80.242722   36.391163   13.300632
H   13.778937   23.975172    6.971282
H   51.049511   93.520645    1.001998
H   97.758934   70.713318   93.848633
H   52.005123   83.674721   87.562210
H   62.231651   13.080629   67.398285
H   54.072563   94.169449   16.499262
H    2.081003   97.226006   92.152382
H   20.528301   12.568443   87.595810
H   39.284565   41.418243   28.121727
H   29.989666   68.714073   69.058655
H   78.514923   52.522701   60.272808
H   43.612617   23.706478   77.918732
H    5.646747   20.539074   56.806797
H   39.300301    9.465058   32.721039
H   99.760414   56.775150    5.034287
H   68.149086    1.697524   83.122620
H   58.456799   70.368851   19.874115
H   88.103661   50.557999   59.739105
H   69.019745   89.867973   37.477177
H   96.073441   41.877754   78.213089
H   81.946770   22.760595   71.493286
H   60.436523   74.723969   14.608524
H   70.453644   88.957413   16.236645
H   91.480995   96.849960   99.554680
H   86.553566   20.515244   53.313404
H   18.900570   96.072220   42.952995
H   54.554253    1.250812   79.365021
H   69.377800   87.311150   69.924728
H   93.717537   55.072525   78.568832
H   53.971756   48.431145   71.480789
H   43.606659   95.037575   87.316116
H   65.123253   54.452267   24.374649
H   43.749817   49.913357   53.077194
H   45.586590   62.153923   89.501488
H   44.287193   15.921630   82.979744
H   54.074314   60.049736   58.649525
H   56.675701   67.023743   15.813366
H   51.661034   95.494667   45.183960
H   34.651901   62.512115   67.143944
H   73.018158   52.559055   95.031715
H   18.801897   91.873672   79.032234
H   65.892616   66.285980   49.132256
H   46.121258   99.002441   38.970371
H   89.787178   20.882832   93.179115
H   17.655256    7.868124   68.712021
H   25.231094   61.616920   66.054062
H   72.200089   44.255413   63.075260
H   62.378246   69.670601   84.225143
H   50.211758   31.958824   16.588526
H   98.971741    0.630323   91.738770
H   60.394737   44.988831   89.485199
H   56.834042   72.505814   75.625473
H   29.847290   21.537897   33.005665
H   77.831551   21.795233   37.110222
H   22.029686   28.787117   58.663074
H   56.148743   32.030361   12.703477
H   16.961817   55.116508   60.700150
H   69.854507   92.827888   55.327805
H   23.888168   44.263447   60.128651
H   98.054230   27.217365   36.165073
H   39.844074    8.248611   87.103882
H   73.767517    9.118268   35.951485
H   36.040993   54.564152   58.357868
H   43.334126   64.864395   82.179825
H   67.617981   67.529633   81.037163
H   57.819733   92.832428   85.454575
H    9.953555   49.243523   23.567848
H   32.407761   62.074047   99.164734
H    4.326792    9.480286   68.626755
H   68.108467   14.568203   65.707954
H   72.362732   57.598091   90.518280
H   76.068474   95.689148   34.906879
H   25.137539   30.463711   80.312614
H   52.144775   89.859230   11.871483
H   57.861622   25.762573   87.969444
H   89.311989   75.626060   77.189713
H    5.394276   38.696136   85.420631
H   41.554413   99.505737    5.757324
H   76.344658   79.635567   35.778912
H   98.133186   62.480003   69.892059
H   54.941677   56.679462   69.404861
H   61.817307   21.330479   77.209114
H   45.250965   92.891739   20.892366
H   10.608679   24.494600   64.518127
H   29.984692   75.224571   39.218124
H   74.839722   41.168114   20.857851
H   76.043472   11.102410   25.552130
H   11.408883   93.548775   13.356244
H   20.394245   91.582932   38.703510
H    8.006088   12.431732   64.913078
H    4.951787   25.066000   93.678108
