200
TIME:    0.346, STEP:   346
H   12.728358   62.123203   17.152111
H   28.909067   34.425644   94.200356
H   15.915952   73.777756   50.569267
H   21.415615   78.212715   41.727821
H   14.084714   86.415802   52.134476
H   86.170227   49.937988   62.411819
H    4.894973   55.228920   51.703075
H    5.264028   93.463715   21.309780
H   91.733269   85.917099   45.133549
H    7.129799   73.414085   91.891396
H   15.888395   96.858589   96.311371
H   31.216125   44.852135   17.792974
H   13.775813   90.525795   56.947258
H   99.393333   53.654156   47.373653
H   14.504144   72.760582   42.717781
H   26.210690   21.598896   52.036362
H   89.193954   12.683002   10.285583
H   34.045052   88.262756   41.633228
H   68.552231   25.864357   44.044250
H   90.393486   78.248985   33.361637
H   59.357185   82.049683   20.984135
H   87.669197   52.866035   66.489868
H   91.831001   61.770752   46.592796
H   10.853429   89.025597   91.253700
H    7.853766   16.967192   41.627987
H   18.573347   67.040436    3.455618
H    0.948401   60.923679   53.343796
H   96.942902   74.502159    1.010184
H   15.533109   53.307808   37.717674
H   88.259399   23.603949   94.959183
H   13.223101   55.877781   16.324409
H   29.998478   65.990707   96.212852
H   24.562096   11.266420   74.473907
H   92.918343   63.693565   40.143066
H   42.901615   85.421005   33.412800
H   29.598740   47.505104   80.691978
H   89.306854   72.141144   86.750710
H   27.671764   47.497265   10.401478
H   49.147171   42.604908   46.787827
H   89.066193   39.252590   59.555756
H   80.535851    0.272206    5.042650
H   18.615374   40.884132   36.688065
H   74.793289   85.346886   54.264301
H   37.045120   68.382179   22.539392
H   32.398659   79.529205   48.189140
H   39.568115   11.079866   43.840702
H   81.971680   21.019012   98.503258
H   87.535210   65.548988   43.836990
H   91.179749   24.729610   61.242756
H   58.324116   18.279860    1.227842
H   75.686661   69.154457   23.667858
H   17.086046   37.522442   65.820686
H   55.035172   91.388741    9.314973
H   20.828991   84.420609   83.272881
H   72.712143   74.027527   87.345207
H    3.946810   69.738716   82.119232
H    5.127974   17.146584   48.517536
H   68.566757   61.043552    3.390271
H   25.944456   76.525131    9.690215
H   40.651669   95.393959   65.034714
H   50.076218   13.308317   39.139526
H   91.841217   16.675989   49.878536
H   74.367584   27.402334   81.308777
H   26.694317   65.303566    6.034161
H   73.052338   77.659302   22.264116
H   34.581688   20.679308   34.768631
H   82.215675   20.926090   88.025124
H   96.747826   91.690926   89.370171
H   20.292921    7.285686   60.638145
H   44.626789   43.477497   50.976933
H   58.418663   78.425491   76.116699
H   29.161392   21.035604   44.022831
H   80.858047   27.495647   95.946304
H   11.318681    6.634752   63.658283
H   80.435745    2.587473   62.628601
H   55.993034   15.334289   62.184807
H   94.979553   33.896324   70.646217
H   22.629128    7.900141   44.342873
H   12.336445   34.416019   32.590755
H   66.678879   90.075775   89.234650
H   47.866985   28.310541   99.560120
H   31.297291   66.684105   84.580315
H   10.586156   14.829032   87.178291
H   21.217413   65.325752   97.306366
H   35.133537    0.444745   54.778221
H   27.653599   82.065552   25.576241
H   40.606018    3.004990    2.014331
H   74.449989   14.599190   15.440278
H   68.930145   72.314308   77.552086
H   22.913208   90.798363   53.699337
H   36.799332   35.807858   80.283005
H   83.317070   89.465485    0.680760
H   52.295162   15.666615   92.710892
H   55.274639   90.625404   72.015236
H   27.810848   55.492348   72.354561
H   64.882362   30.079239   24.077768
H   80.743492   10.612860    2.894382
H    3.980688   30.085861   49.597187
H   34.616020   68.716187   53.256897
H   69.047493   99.649948   27.276285
H   14.595517   83.357178   73.931190
H   94.513985   78.260254   65.279900
H   25.376677   33.296204   31.984207
H   26.969397   68.135193   94.371735
H   25.198225   26.079720   28.524174
H   91.619530   21.583151   38.928085
H   70.679619   31.412966   55.765915
H   64.126869   38.344238   14.642797
H   75.490395   38.751633    4.258228
H    7.771831   26.582460    6.056056
H   48.589172   95.145653    0.870430
H   90.250229   66.010925   91.718575
H   55.252998   81.504715   91.629723
H   62.865105   17.112118   72.220520
H   60.312935   86.382538   23.056004
H    9.712571    2.696302   83.716324
H   28.216770    9.935296   85.415817
H   40.233318   32.213909   31.859673
H   22.887926   61.693302   78.300797
H   73.579979   48.790462   53.296974
H   41.660896   22.463825   84.046394
H   13.715405   24.968967   51.306168
H   34.791939   17.351986   27.173639
H    2.515556   63.504166   13.223316
H   73.744591    6.327579   89.307350
H   51.605801   65.252716   23.484728
H   92.751839   49.684860   66.961044
H   73.110085   88.401329   35.897823
H   93.772179   48.646717   82.474632
H   72.882965   23.646931   68.307472
H   52.887871   81.400909    7.462200
H   77.631355   87.102707   11.826726
H   92.091621   87.751915   98.163651
H   95.722946   15.720747   51.011955
H    9.662585   99.453491   51.545990
H   59.534851    1.490809   82.119972
H   69.068207   86.834633   60.615532
H   92.122490   60.911282   81.523521
H   49.083893   45.816010   71.525017
H   43.505363    4.006040   92.512146
H   55.865414   59.951469   18.334015
H   52.358505   44.231537   48.717922
H   51.597977   58.712017   95.808914
H   52.855934   22.690596   79.880959
H   45.284435   66.251587   52.534702
H   49.823990   63.802216   24.769455
H   47.238274   96.313591   46.522915
H   39.758049   69.472969   68.216820
H   68.019012   60.366653   96.890701
H   12.840897   89.832069   86.030182
H   72.483955   63.110149   50.543972
H   38.249458    4.176742   44.830528
H   81.100021   27.875072   99.743347
H   12.711990    3.575817   73.333092
H   17.815838   56.678410   62.671082
H   66.648811   43.791737   57.322105
H   60.420818   64.062256   82.010910
H   47.553108   34.959167   12.207497
H    7.530413    1.334927   98.673943
H   62.491268   52.618805   82.308914
H   54.997169   80.102974   80.597511
H   38.627270   22.506981   34.625679
H   69.782127   29.948448   37.187977
H   15.165512   23.293621   66.663513
H   57.939247   25.685125   10.866070
H   13.739978   61.066547   61.722378
H   73.074562   95.852486   53.345409
H   23.724812   35.755341   52.395954
H   95.513283   27.825495   36.606636
H   31.310287    9.659793   89.209686
H   77.339966    6.894405   35.967178
H   42.501076   61.510025   57.783623
H   39.721016   72.899551   87.441483
H   69.920677   72.003296   76.699234
H   66.511169   94.239151   94.247307
H    4.180070   48.233421   23.388441
H   34.328808   56.232437   91.342155
H    2.669452    9.301949   66.235611
H   72.890755   18.915407   67.895081
H   81.258186   55.592155   87.880318
H   79.482559   88.987953   39.254738
H   21.365709   30.235439   73.485870
H   60.755085   90.055771    8.167986
H   53.789116   25.416599   81.089912
H   86.893738   83.736832   77.960129
H    1.479509   37.118210   84.484718
H   35.042969    2.708867    1.613815
H   85.328568   71.714546   29.235519
H    3.548695   61.646099   67.754868
H   51.541145   57.696697   67.042252
H   52.884045   27.517349   78.544502
H   46.783951   87.809845   23.274237
H    6.454997   20.045803   60.234383
H   33.251606   67.761520   35.449505
H   81.257004   49.520710   21.469547
H   75.586929   10.643549   28.114120
H   10.165874   88.449760    7.044538
H   25.828890   95.299477   43.977295
H   10.499776   11.908491   73.276375
H    6.902171   31.401604   96.276123
