200
TIME:    0.245, STEP:   245
H    9.624796   62.458401   15.425074
H   28.008850   32.951160   90.100159
H   18.032892   69.357002   45.594475
H   18.011049   77.032204   44.368946
H   15.157057   83.855972   53.586613
H   89.455933   52.679287   65.401421
H    3.431672   55.300583   49.748142
H    3.000674   89.102295   24.894852
H   87.631531   87.431267   47.597443
H   10.685192   74.828850   95.875237
H   12.367955   94.700996   93.119675
H   30.798477   42.156300   12.980518
H   11.296893   87.173820   61.086754
H    4.167343   53.228031   42.506741
H   19.380466   71.983078   42.966290
H   29.154648   25.760353   54.215145
H   84.442627    7.952673   15.189291
H   36.443447   83.407402   43.431351
H   65.191780   29.520899   42.557438
H   90.072159   79.636009   37.276897
H   58.145081   77.007851   25.611401
H   89.917717   49.005486   70.382011
H   94.855484   62.505104   49.016235
H    8.714137   88.104767   91.570404
H    3.463787   12.905065   45.231937
H   18.656954   62.558159    6.791410
H   98.992577   58.897083   49.282898
H   94.625031   70.335693    0.744428
H   11.279183   56.377754   38.309086
H   92.823479   20.898289   98.452942
H   13.354964   51.658146   16.200926
H   31.835129   63.623520   93.726227
H   27.002487    9.093127   73.240227
H   96.261070   63.583374   38.377693
H   47.748493   89.594406   34.181057
H   32.897930   49.807949   79.533813
H   86.407974   74.321083   85.992470
H   32.667580   44.884651   14.942633
H   52.885201   46.221573   44.542774
H   90.034798   39.667927   63.501068
H   80.505798    4.990236    1.690242
H   13.588182   43.002041   39.682880
H   76.611832   87.667068   50.513943
H   37.270126   63.476780   18.927158
H   28.947838   76.447701   44.544350
H   40.989429   13.708373   42.742256
H   80.068375   25.967220   96.288643
H   89.994095   65.550529   47.467911
H   87.273735   28.562420   61.169937
H   61.938469   17.824068    5.500890
H   78.089294   70.432831   27.670578
H   20.946981   35.784039   63.649158
H   52.311596   94.279144    7.993639
H   22.332178   82.289215   81.777206
H   76.987259   76.273735   90.611649
H    5.241558   72.226883   78.811951
H    5.416214   16.764381   49.600956
H   67.463303   58.695629    5.213196
H   28.075657   74.574051    7.247416
H   42.987648   95.961098   66.901802
H   50.403324   15.278854   42.090420
H   90.026527   16.436728   49.104500
H   71.585060   25.310047   84.716232
H   24.247183   65.159470    3.779139
H   71.428749   76.153610   18.134060
H   38.543568   16.755379   32.953171
H   85.988380   23.056520   85.938423
H   97.313423   91.461296   87.370544
H   16.700336    5.920815   61.916519
H   45.208183   41.717133   50.982327
H   58.462971   76.678612   73.415085
H   31.999975   23.690407   44.729828
H   77.652481   25.749538   99.328331
H    8.028255    8.854791   60.718178
H   79.205917    0.952519   67.377617
H   53.440140   18.900078   62.844799
H   95.406448   30.136335   72.074852
H   26.370047    6.060986   47.796562
H   11.568573   29.916195   34.827717
H   68.200752   90.639061   94.024506
H   43.580311   30.017544    1.059405
H   26.856310   68.500336   87.702660
H   10.980206   13.721147   90.133423
H   24.511017   62.023094   94.014496
H   38.730167   99.376724   57.640499
H   24.808081   85.599380   27.678738
H   36.079311    2.794528    1.782786
H   75.289909   18.358253   11.630778
H   65.840858   72.063103   77.184525
H   23.419086   86.271271   54.810497
H   41.033222   34.935959   80.732246
H   84.020599   88.579330   98.476944
H   47.497215   16.805708   95.587425
H   59.803658   94.254013   69.241959
H   25.251596   56.858566   68.148026
H   69.065010   27.821087   28.826591
H   79.373421   14.106234   98.544563
H    6.757240   28.516405   48.640911
H   36.904610   69.727943   52.898968
H   67.291367   98.008636   27.251627
H   10.089327   80.564636   69.175240
H   90.758232   76.732216   65.837021
H   23.283041   36.987228   30.572718
H   22.116161   67.948715   90.360924
H   25.332111   27.407024   25.249641
H   87.621048   26.528084   43.656681
H   65.895157   30.158865   56.235962
H   64.721748   34.466351   18.548267
H   72.923630   40.026539   99.374367
H    4.527351   27.990675    5.561736
H   47.260326   96.023331    0.799369
H   86.194725   63.471050   90.568115
H   57.007198   80.332680   93.826614
H   63.207237   19.289553   74.825043
H   63.683403   82.176773   26.597345
H   13.834440    5.651037   79.159950
H   32.369366    8.513115   84.238388
H   40.745747   27.242584   33.878563
H   19.052227   57.901333   83.292542
H   70.914581   46.774654   49.529278
H   40.606758   21.792660   87.355988
H   18.073357   27.361584   48.335239
H   32.356941   21.611691   24.177475
H    4.003645   67.138885   17.646250
H   76.766762    8.828300   92.647766
H   47.905529   62.489243   25.434845
H   95.262352   49.213272   70.861664
H   75.319305   87.609184   35.044804
H   92.529251   52.302681   84.776321
H   67.987541   24.125647   66.586792
H   48.810791   85.007172    3.602423
H   81.508087   86.100967    9.444898
H   92.421425   82.837997   97.412346
H    0.675404   13.131154   49.768642
H    4.673088    1.279714   56.187126
H   62.224907    1.620433   83.607941
H   68.900993   86.577263   55.587570
H   91.260994   64.064827   83.119370
H   46.443924   44.403557   71.548904
H   43.450653    8.850124   95.318558
H   50.865192   62.921627   15.071453
H   57.008118   41.162746   46.363449
H   54.844769   56.853020   99.215599
H   57.483971   26.346697   78.207283
H   40.536961   69.601250   49.232044
H   46.123333   62.061886   29.606701
H   44.849510   96.755898   47.246094
H   42.515915   73.232574   68.796288
H   65.318939   64.583542   97.894753
H    9.621364   88.729385   89.809822
H   76.043983   61.394863   51.306450
H   33.997845    6.971354   47.995640
H   76.408028   31.651630    3.289065
H   10.042066    1.257509   75.828964
H   13.810806   54.011086   60.843678
H   63.650528   43.541302   54.214787
H   59.363598   61.033524   80.814987
H   46.117153   36.579674    9.841272
H   12.152965    1.715492    2.419505
H   63.623619   56.739807   78.432953
H   54.005062   84.206253   83.282944
H   43.369350   23.030390   35.500660
H   65.434578   34.351955   37.229973
H   11.458209   20.326546   70.984863
H   58.906311   22.258020    9.873673
H   11.999841   64.280174   62.274490
H   74.813736   97.486092   52.274704
H   23.636581   31.160053   48.219471
H   94.140900   28.153950   36.845127
H   26.701130   10.421982   90.347046
H   79.269470    5.693281   35.975655
H   45.990211   65.261414   57.473469
H   37.769550   77.239395   90.283340
H   71.162834   74.424423   74.359787
H   71.205475   94.998932   98.996323
H    1.061748   47.687859   23.291542
H   35.366379   53.077343   87.117126
H    1.774315    9.205627   64.944138
H   75.473701   21.263330   69.076363
H   86.062683   54.508736   86.455536
H   81.326530   85.368591   41.603046
H   19.328518   30.112148   69.798698
H   65.404968   90.160568    6.168990
H   51.589790   25.229599   77.374229
H   85.587624   88.117516   78.376236
H   99.365105   36.265961   83.979225
H   31.526119    4.438920   99.375931
H   90.180840   67.436348   25.701498
H    6.473581   61.195702   66.600555
H   49.704494   58.246113   65.766190
H   48.059128   30.858921   79.265755
H   47.611927   85.065079   24.560701
H    4.211534   17.642977   57.920750
H   35.016209   63.730648   33.414047
H   84.723022   54.032005   21.799929
H   75.340347   10.395715   29.497869
H    9.494515   85.695747    3.635539
H   28.764179   97.306808   46.825703
H   11.846634   11.625885   77.793449
H    7.955587   34.823349   97.679329
