100
TIME:    9.669, STEP:  9669
H   63.446930   35.328041   90.293777
H   33.441208   28.812923   87.766411
H   45.972088   69.530556    9.840441
H   83.099518   34.288628   10.171140
H    8.556715   47.769974    3.540314
H   78.081665   90.732948   36.299156
H   46.217197   14.234706   46.581570
H   59.921967   25.093487   20.417877
H   15.945396   56.657043   91.458199
H   10.662676   55.217518   86.301186
H    0.868137   55.294235    8.380247
H   86.802086    8.347517    4.679482
H   27.189728   76.736397   64.228180
H   76.330627   75.273323   93.054680
H   98.045662    6.350075   85.917992
H   12.753101   66.042831   30.429676
H   46.583595   21.500404   53.595566
H    7.832953   24.345192   64.349197
H   95.866653   83.979691   72.764191
H   32.015850    0.481812   74.643089
H   90.504059   93.638191   94.809677
H   89.356796   56.919724   95.873642
H   56.647118   15.992382   55.709351
H   20.668003   52.497528   88.970245
H   83.765976   19.360115    7.943820
H    2.014713   41.061386   80.986259
H   28.309940   40.548199   91.812485
H   16.699785    7.755941   86.378044
H   21.414410   26.339140    0.113989
H   71.745552   51.531815   52.046150
H   96.590721   89.093781   44.398590
H   76.263931   85.367355    4.156313
H   51.429588   61.052261   68.856834
H   86.639984   87.616600   64.411766
H   40.321159   27.590981   13.322066
H   13.147100   42.751606   89.029213
H    7.182264   50.435799   70.344742
H   64.352028   82.007805    4.756532
H   36.940685   70.746117    7.314754
H   52.481190    7.002885   98.771072
H   74.443939   87.949661   70.141930
H   85.362984   79.521591   73.576164
H   94.498566   21.490891   99.875450
H   61.953403   74.943092   26.116947
H   17.935369   50.405888   83.512589
H   53.320091   47.332195   22.442728
H   17.285954   50.674458   18.284189
H   56.777767   94.957565   66.840103
H   47.663048   31.663662   58.775520
H   28.735388   77.908775    7.475925
H   45.120365   36.335915   51.848755
H   75.042328   66.528564   39.326576
H    9.427052   78.072876   41.312233
H   52.776619   49.447693   58.482307
H   70.934639    5.949312   82.576645
H    5.638487    2.362874   63.471207
H    9.225397   10.551542   75.589775
H    6.082557   63.769371   64.503929
H   52.853695   47.321083   69.197029
H   20.965054   70.980484   88.601234
H   69.632355   28.918344   60.531040
H   55.746208   37.944382   57.865334
H   30.495785   47.498825   70.443100
H    6.992364   94.434128   64.629578
H   16.101376   88.595772   96.000114
H    7.367947   61.598961   17.891596
H   11.806335   82.643890   33.882214
H   12.461907   70.517769   28.436722
H   38.804123   55.033661   53.811047
H   26.397339   34.292957   81.335831
H   14.989910   37.518475   46.170265
H   77.047966   30.552147   64.778229
H   76.555374   40.041622   13.834858
H   17.358768   37.469242   28.653971
H   28.235643   42.552334   34.411579
H   54.241241   27.264584   45.327911
H   44.934517   88.923508   62.227379
H   86.239235   18.496803   48.433632
H   25.177473   25.117817   25.563799
H   25.348351   82.302711   87.928322
H    0.102401   29.312601   57.886391
H   66.848717    7.182586   78.094749
H   29.458620   68.818153   50.770351
H   15.361272   39.556839   80.303398
H   81.531830   44.065468   10.453116
H   28.758686   64.214912   13.228047
H   12.925570    0.336776   84.598351
H   11.532181   31.354437   95.329025
H   56.344242   55.817635   49.110847
H   11.469047   11.466225   69.858078
H   19.718649   95.528687   37.653709
H   93.706985   22.680555   17.760263
H    5.255119   17.632322   66.723198
H   79.451820   99.606125   82.271080
H   89.418671   83.639534   38.268044
H   92.541321   13.914246   68.032455
H   95.122917   22.562210   81.114838
H   19.613901   64.880844   84.770164
H   48.104088   78.555275   35.157658
H   39.789825   30.513294   66.295395
