100
TIME:    0.102, STEP:   102
H   10.424806   12.667336   99.052628
H   98.432869   10.275032   84.434662
H   81.516937   81.242241   22.142220
H   81.493729   28.448393   34.572121
H   94.257446   80.933273   62.939629
H   26.434647    1.102637   88.846825
H   47.624020   68.226311   98.429016
H   11.869299   97.426910   98.828102
H   51.120644   76.486465   93.666176
H   72.053108   17.851685   11.682947
H   90.767242   70.346725   29.924637
H   51.948818   28.803230   85.668877
H   36.774239   55.536270   14.991193
H   50.031605    4.762777   65.003517
H   81.743599   60.910225   45.869961
H   97.421478    2.815952   24.573055
H   15.865477   88.742531   82.641685
H    3.324455   89.740265   96.010056
H   46.852600   82.632538   68.735016
H   89.888344    3.393625   23.146662
H   58.223724   46.063438   54.472839
H   72.128212   44.234566   10.570147
H   84.382179   93.792656   29.432686
H    9.564671   37.905094   99.498703
H   25.934679   78.083809   37.311478
H   46.187031   24.574448   79.610283
H   53.283802   38.237171    1.990406
H   23.934196   61.200191   70.147659
H   13.389037   58.346127   52.350433
H    4.905170   88.315170   91.497673
H   20.114138   31.189127    1.340617
H   72.197723   49.692055   89.821449
H   77.543152   61.019356    6.985920
H   82.411812   64.375000   67.454277
H   78.236458   51.209793   30.939598
H   81.423515   92.498405   20.293364
H   89.582954    0.798930   16.501915
H   59.772552   57.087353   29.639307
H   46.135471   78.330589   32.350540
H   53.585598    2.633833   46.059532
H   28.271122   59.678699   44.741367
H   22.453995   16.434366    7.592433
H   12.120280   64.111603    8.841135
H   72.846207   14.481229   90.704605
H   47.807320   27.867496   64.835999
H   76.648735   65.121635   83.718285
H   37.157093   31.243000   28.494818
H   56.244862   96.432205   74.889130
H   68.008904   24.001690   40.405518
H   28.029051   32.301899   76.530411
H   43.532543   59.797325   54.499783
H   10.090333   54.274681   67.367020
H   10.995197   22.600159   96.945595
H   74.322845    5.538035   36.316730
H   32.639412   67.447540    1.271697
H   93.693863   12.425129   89.154480
H    2.719015   86.603645   65.688484
H   18.464685   67.253899   10.927652
H   98.322365   43.078766    3.652453
H   52.290985   35.628029   60.701042
H   66.134964   73.826401    6.443702
H   95.290955   26.995956   90.739075
H   81.151955    0.197438   26.560516
H   50.043991   42.349335   24.371450
H   36.370140   52.698246    5.059880
H   95.079475   37.202442   52.216900
H   79.384789   51.887775   71.986801
H   73.319893   23.370869   71.078789
H   61.987755   42.457253   53.836239
H   32.453102   53.274887    1.516275
H   18.793821   88.464195   60.924076
H   65.555626   48.140358   64.090828
H    0.340667   13.261936   59.134220
H   27.945862   42.925274   97.146446
H   67.088058   28.788832    9.130052
H   28.069273   14.109411   89.066422
H   76.216431   17.703468   92.836853
H   36.772476   44.050709   20.073017
H   66.443535   53.201290   18.825790
H   94.523178    3.398618   12.133717
H   12.878124   30.336283   86.085114
H   48.977238   44.893692   78.251404
H   24.249866    8.959846   39.614777
H   57.187447   20.889866   54.113625
H   47.364273   42.505051   37.864433
H   48.950535   12.796168   48.867916
H   73.967064   95.936684   28.406948
H   57.597168   97.127815   94.677895
H   57.799995   88.493309   27.366486
H   57.316811    5.090264   27.858149
H   28.196840   78.938599   35.615795
H   85.833595    3.178060   35.468361
H   91.828865   30.687746   26.805887
H   57.087257   19.419249   33.696293
H   54.828251   40.593410   18.431141
H    2.346355   91.703728   62.180489
H   54.505943   73.533989   31.322792
H    7.239870   17.106140   54.403183
H    3.853046   37.289974   36.507633
H   45.576061   76.082909   87.861801
