200
TIME:    0.593, STEP:   593
H   20.318125   61.303463   21.375658
H   31.110588   38.031559    4.227713
H   10.739103   84.588905   62.735344
H   29.741632   81.099709   35.268833
H   11.462252   92.675980   48.583210
H   78.134888   43.234020   55.101055
H    8.473563   55.053665   56.483952
H   10.799159    4.129420   12.542421
H    1.764150   82.214134   39.107986
H   98.434967   69.954216   82.148735
H   24.497557    2.134969    4.116799
H   32.237503   51.444920   29.561901
H   19.838123   98.723198   46.823936
H   87.719101   54.696262   59.275906
H    2.578996   74.662003   42.110043
H   19.011108   11.421867   46.708050
H    0.813476   24.251234   98.293282
H   28.179976    0.136747   37.235840
H   76.770363   16.922121   47.680317
H   91.179306   74.856956   23.786694
H   62.321442   94.379707    9.668082
H   82.170341   62.307182   56.971458
H   84.434494   59.974861   40.666168
H   16.085161   91.277527   90.479187
H   18.589714   26.901125   32.814365
H   18.368883   78.002342   95.297791
H    5.731781   65.879814   63.274902
H    2.611591   84.691437    1.660117
H   25.936272   45.800117   36.271351
H   77.097740   30.220760   86.415039
H   12.900622   66.197090   16.626394
H   25.506866   71.779770    2.294118
H   18.594009   16.581280   77.490929
H   84.743553   63.963043   44.460365
H   31.048321   75.214767   31.533875
H   21.530422   41.873394   83.524323
H   96.396194   66.810005   88.605019
H   15.454325   53.886528   99.295891
H   40.005653   33.760193   52.278202
H   86.697426   38.236866   49.907318
H   80.609344   88.733665   13.241188
H   30.909594   35.704693   29.363939
H   70.345963   79.672775   63.435970
H   36.494858   80.378654   31.373272
H   40.838215   87.065163   57.102638
H   36.092228    4.651736   46.527000
H   86.626297    8.917811    3.918592
H   81.521896   65.545219   34.957413
H    0.732087   15.356320   61.420837
H   49.485054   19.394518   90.778435
H   69.810913   66.028137   13.879080
H    7.644166   41.773785   71.131096
H   61.697186   84.325317   12.542584
H   17.152880   89.633026   86.930618
H   62.257156   68.534325   79.356979
H    0.780445   63.653736   90.207336
H    4.423068   18.081276   45.867985
H   71.265305   66.785500   98.932076
H   20.732510   81.296585   15.664190
H   34.938927   94.006996   60.468666
H   49.276264    8.489281   31.922979
H   96.280663   17.261114   51.772171
H   81.172371   32.519066   72.975693
H   32.678947   65.655960   11.548992
H   77.022896   81.341537   32.364368
H   24.892387   30.275452   39.208420
H   72.989357   15.716015   93.128242
H   95.364632   92.252495   94.260345
H   29.078747   10.623536   57.511826
H   43.204964   47.782547   50.963741
H   58.310307   82.697563   82.723618
H   22.219511   14.543221   42.293839
H   88.697403   31.765835   87.675407
H   19.365662    1.205508   70.849342
H   83.443344    6.585827   51.014671
H   62.236252    6.614164   60.570766
H   93.935562   43.091549   67.152428
H   13.480609   12.397877   35.896721
H   14.214310   45.420326   27.120167
H   62.956802   88.698235   77.520844
H   58.350239   24.135990   95.892960
H   42.158348   62.242058   76.944481
H    9.622490   17.538414   79.951385
H   13.162758   73.402550    5.356568
H   26.337818    3.056669   47.778393
H   34.612263   73.423416   20.434490
H   51.676281    3.519683    2.580611
H   72.395927    5.406085   24.756578
H   76.490402   72.916420   78.442078
H   21.676060    1.869684   50.981945
H   26.445417   37.940125   79.184364
H   81.596558   91.632614    6.070206
H   64.028755   12.880911   85.676201
H   44.198723   81.751480   78.797409
H   34.069458   52.151199   82.641830
H   54.653511   35.601650   12.464356
H   84.094063    2.069590   13.531976
H   97.190704   33.923801   51.935802
H   29.019173   66.241890   54.132229
H   73.342178    3.663301   27.336588
H   25.615812   90.186462   85.562080
H    3.698568   81.997139   63.917435
H   30.496756   24.269234   35.435600
H   38.837929   68.591232    4.180570
H   24.870800   22.833736   36.532188
H    1.398074    9.490097   27.363903
H   82.380234   34.479927   54.616394
H   62.671204   47.827785    5.091681
H   81.767532   35.633793   16.201939
H   15.706351   23.138609    7.264937
H   51.838924   92.999252    1.044212
H    0.168134   72.222107   94.532074
H   50.963024   84.370979   86.257126
H   62.028404   11.787104   65.851044
H   52.070305   96.667923   14.395451
H   99.632385   95.470940   94.859138
H   18.061413   13.413303   88.295273
H   38.980152   44.371506   26.922386
H   32.268284   70.966728   66.093262
H   80.098328   53.720211   62.511044
H   44.238838   24.105190   75.952637
H    3.057893   19.117718   58.571705
H   40.746834    6.934484   34.501053
H   98.876472   54.616108    2.406810
H   66.353737    0.211952   81.138214
H   60.654980   72.010391   18.715630
H   86.612267   50.838150   57.421906
H   67.707336   90.338554   37.983921
H   96.811813   39.705894   76.845749
H   84.854942   22.476210   72.515472
H   62.858551   72.581635   16.901463
H   68.150635   89.552505   17.651592
H   91.285072   99.769119    0.000999
H   83.611519   22.053558   54.051777
H   21.864590   94.987320   40.195885
H   52.956200    1.173808   78.481079
H   69.477135   87.464043   72.911636
H   94.229317   53.199127   77.620804
H   55.540054   49.270226   71.466599
H   43.639160   92.160072   85.648941
H   68.093681   52.687817   26.312820
H   40.987671   51.736401   54.475891
H   43.657803   63.258278   87.477715
H   41.537865   13.749713   83.974007
H   56.894596   58.059837   60.611500
H   58.874111   68.057373   12.939754
H   53.080101   95.231911   44.754349
H   33.013565   60.278687   66.799706
H   74.622162   50.053944   94.435249
H   20.714548   92.528732   76.786903
H   63.777775   67.304962   48.679298
H   48.646969   97.342133   37.090107
H   92.574501   18.639332   91.072945
H   19.241293    9.245360   67.229324
H   27.610321   63.201469   67.139420
H   73.981247   44.404186   64.921303
H   63.006298   71.470070   84.935593
H   51.064800   30.996147   17.994204
H   96.225616    0.404248   89.513580
H   59.722054   42.540710   91.787750
H   57.423412   70.068222   74.030167
H   27.030098   21.226961   32.485874
H   80.414253   19.179228   37.085274
H   24.232101   30.549736   56.096165
H   55.574249   34.066265   13.293019
H   17.995562   53.207405   60.372162
H   68.821335   91.857430   55.963867
H   23.940582   46.993320   62.609730
H   98.869507   27.022243   36.023396
H   42.582188    7.795826   86.428223
H   72.621277    9.831807   35.946449
H   33.968239   52.335529   58.542118
H   44.493412   62.286118   80.491592
H   66.879150   66.094543   82.429222
H   55.031036   92.381073   82.633377
H   11.806010   49.567619   23.625412
H   31.791382   63.948360    1.674506
H    4.858570    9.537506   69.393967
H   66.574043   13.173340   65.006203
H   69.508575   58.241707   91.364685
H   74.973045   97.839264   33.511845
H   26.347752   30.536953   82.503014
H   49.381943   89.795601   13.060295
H   59.168308   25.873581   90.176781
H   90.087898   73.023674   76.942520
H    6.650351   39.202423   85.720924
H   43.643646   98.478058    7.086784
H   73.462120   82.177071   37.878445
H   96.395515   62.747566   70.577789
H   56.032757   56.353077   70.162918
H   64.683540   19.345387   76.780647
H   44.759098   94.522293   20.128130
H   11.941401   25.922022   65.892792
H   28.936527   77.619133   40.427307
H   72.780701   38.488136   20.661585
H   76.189957   11.249639   24.730101
H   11.807710   95.184822   15.381391
H   18.650509   90.390457   37.011387
H    7.205975   12.599617   62.229668
H    4.325996   23.033186   92.844521
