100
TIME:    7.205, STEP:  7205
H   30.077089   61.287788   92.549637
H    1.492780   95.291435   32.403172
H    3.618083   92.260948   38.765636
H   82.685944   35.805267   45.232616
H   30.635939   50.269863   70.348221
H   16.286961   93.402382   92.281357
H   75.355133   47.854481   53.893536
H   53.587502   11.926549   46.655136
H   76.515221   93.561920   46.558239
H   77.965462   19.838121   89.822639
H   30.063477   56.151340   45.727196
H   80.846619   84.840164   80.069511
H   84.310722   25.875957    9.093803
H   98.333168   82.868050    5.542912
H   68.117928   26.446709    4.415185
H   11.825737   81.553284   34.963379
H   44.723915   58.524326   29.287928
H   55.143261   44.243637   49.762939
H   57.482639   80.612274   42.948559
H   98.404251   52.804600    6.882471
H   36.721802   38.937073   61.684162
H   53.130707   53.648727    5.705958
H   89.545067   36.024422   26.207388
H   49.609970   23.020967   71.968536
H   71.892281   14.767021   89.750465
H   13.635113   13.698269   12.859889
H   40.783764   42.974060   42.927433
H   24.605049   92.744759    4.930372
H   67.836617    2.786256   16.587915
H   77.265076   12.516172   56.165276
H   99.616325   68.141068   39.342339
H   20.685207   53.442783   32.261101
H   77.868050   41.329872   46.880257
H   82.529900   13.427377   68.216141
H    1.643015   14.150398   63.411179
H   98.956367   49.755508   96.774330
H   70.851547   40.673462   76.191193
H   66.194511   27.097126   30.878204
H   40.947521   24.431311   46.094055
H   84.562767   37.675297    4.908486
H   42.840485    3.405884   12.091471
H   93.015694   69.857559   47.787449
H   73.293488    6.708567   21.898922
H   19.280613   33.578209   85.202141
H   31.675751   47.618481   72.661324
H   85.121391    0.341148   12.432352
H   98.023727   16.670441   94.624855
H   56.627377   69.579147   14.382126
H   75.638130   35.731709   57.065369
H   77.010010   40.398144   79.759010
H   43.006863   74.047180   29.377399
H   55.291744   95.167938    1.073227
H   58.327221   63.785767   84.413887
H    9.842911   89.646393   49.752640
H   67.122086   90.016548   61.632626
H    2.569578    4.954762   47.351593
H   53.016567   81.649071   41.242973
H   89.556808   96.463707   27.971800
H   58.519058   43.203587   58.357201
H   83.562996   81.588547   58.683250
H   14.197292   43.505333   52.636658
H   43.198402   60.878952   69.352158
H   63.209347   15.626575   39.401978
H   37.794079   81.011765   31.523815
H   18.300823   85.393097   66.539253
H   58.732880   84.091515   72.199677
H    9.497602   97.458862   14.919471
H   82.667030   29.599566   10.643264
H   15.997383   32.080978    8.346765
H   76.355919   10.531745   86.561462
H   93.240425    5.173554   75.722023
H   79.951164   12.367589   84.170189
H   37.212189   61.922298   77.013977
H   71.596016   93.415222   75.057098
H    9.543847   38.924160   47.589588
H   95.986015   69.346947   11.124793
H   21.150627    2.188728   18.523001
H   70.484329   79.603569   12.343932
H    7.020252   32.355366   98.065132
H   46.184708   16.528893    0.204103
H   51.864616    3.821389   10.615718
H   81.953804   91.196198   84.233788
H   73.608376   27.611120   16.110512
H   45.841633   28.706882    5.352386
H    1.505949   98.206078   49.308388
H   85.467636   73.707382   42.120361
H   48.360447   79.490273   67.105553
H   71.905235   28.522234   20.873253
H    5.206634   93.009804   69.263191
H   29.319677   12.841633   81.777664
H   18.881031   62.479301   85.618210
H   11.395937   37.363831   70.807594
H   47.307819   43.705738   76.178291
H   43.601685   50.291832   12.620925
H   32.023460    4.348855   81.649963
H   89.025024   11.214637   95.301109
H   90.703606   81.159988   22.822983
H   24.370005   42.962421   34.241745
H   65.483482   67.915138   41.543400
H   86.741554   93.742813    3.659189
