100
TIME:    9.302, STEP:  9302
H   88.266022   68.983894   90.629776
H   43.577164    8.924860   64.627312
H   39.663715   43.126671   14.148922
H   83.037918   49.408562   30.287855
H   11.845301   18.353302   13.490770
H   83.771240   91.130547   99.953735
H   65.450523   89.453239   17.881695
H   88.767441   93.343552   54.115730
H   24.966957   91.942490   14.559076
H   20.688032   49.947941   71.931648
H   35.005646   40.527100   43.731956
H    0.807792   89.951942   30.802013
H   50.592026   98.951500    0.700783
H   94.502548   76.404518   65.127602
H   93.588081   39.132332    3.568614
H   27.510437   98.141891   60.893616
H   76.095467   97.226616   20.186110
H   99.984512   42.203514   77.072342
H   90.149078   68.585358   53.425877
H   41.902607    8.275564   49.655998
H   12.282724   30.173899    4.771802
H   54.172146   56.432526   27.127029
H   61.547096   18.975771   66.209305
H   54.768589   48.107147   16.226477
H   96.892319   48.465988    5.234832
H    3.745980   51.880539   15.522005
H   59.958038   55.805332   84.532516
H   47.665543   90.625626   74.248497
H   13.434220   93.042473   17.461464
H   57.672813   60.614975   22.870716
H   82.148384   56.183392   73.434464
H   53.091236   95.508911   38.131325
H   25.577301   87.904144   35.794579
H   71.133652   21.249786   79.873299
H   49.454720   55.378059   90.993622
H   81.244614   14.005006   90.182808
H   71.981171   63.875740   41.426472
H   79.522362   88.722176   78.857094
H   52.433018   78.742882   42.879227
H   87.048904   41.361351   69.897598
H   99.526230   75.355316   61.495571
H   16.292145   78.080963   54.843342
H   91.340179   19.288700   73.365166
H   85.383949   68.783119   90.234322
H   49.775818   64.895226   52.110592
H   58.054871   40.332226   20.951735
H   14.416352   30.713434   14.760159
H   56.755367   91.177582   44.132206
H   36.936295   62.057529   73.414856
H   21.032621   72.320000   33.136700
H   43.076374   71.612358   51.159958
H   57.206402    0.582046   63.417671
H    1.814633   75.944885   62.628540
H   61.274582   55.436867   42.287178
H    0.155314   73.788269   79.457458
H    5.181389    2.748922   75.964752
H   85.958359   21.141457   40.685127
H   33.409363   98.427620   73.956688
H   23.907814   31.811968   97.370506
H   45.182148   42.771297   99.039589
H   46.479939   45.984524   89.141655
H   68.771751   41.360367   74.470299
H    5.572971   72.531151   95.604401
H   81.791992   92.434937   74.591934
H    1.534411   17.907673   61.823460
H   29.912308   79.843681   96.191200
H   41.251968   69.954346   16.162640
H   37.813095   49.529060   10.891998
H   20.511805   81.403946   76.828186
H   18.943771   15.860630   82.114227
H   26.644920   62.491566   50.571846
H    7.270549   42.737694   37.878666
H    0.484076   58.193943   23.245617
H   25.436733   60.695141   50.460060
H   10.557920   42.011936    6.585538
H   45.564079    3.743283   70.021683
H   11.602696   20.688320   55.717407
H   68.996910   42.492699   28.164520
H    7.579223   26.195812   21.467417
H   43.346153    2.294740   19.545494
H   92.917641   25.515818   35.951286
H   39.310547    4.800146    8.798937
H    6.245295   62.680576   15.818105
H   90.111839    8.151287   13.823902
H   99.401352   67.022934   46.029022
H   37.206249   50.733017   87.742218
H   88.414391   27.020988   67.098427
H    5.630366   60.720741   99.131409
H   48.728275   76.251945   52.112434
H   43.917316   26.566559   56.738884
H    4.698988   75.710373   29.903343
H   66.552704   95.079102   10.768693
H   81.729706    6.619970   38.342522
H   46.053566   77.497421   54.344006
H   95.763443   16.512722   29.834841
H   62.228653   28.405684   86.988373
H   24.253204    1.501621    2.221222
H   20.322298   46.722790   92.139732
H   65.587212   76.970482   65.898552
H   16.995125   39.929874    1.648149
