100
TIME:    0.407, STEP:   407
H   89.798988   84.697395   98.773392
H   89.948753   26.811611    3.673921
H   86.757263    3.185426   18.561020
H   81.544922   15.881617   17.853861
H   91.525589    5.380365   54.669594
H   21.705090    0.770681   19.051870
H   31.640068   88.819954   22.280703
H   87.896896   23.812885   70.825401
H   43.623161   47.162048   74.468712
H   63.717918   22.229870   23.627260
H   62.396881   82.619141    0.545550
H   40.307011   44.091393   63.958290
H   17.373451   37.083435   84.676292
H   34.929600    3.822392   88.212669
H   85.452782   33.668442   31.207815
H   85.159164   76.138618   99.255356
H   91.344368    8.912552   10.411456
H    9.841897   74.908188   85.436325
H   51.601936   95.426193   84.805038
H   81.632271   96.998505   43.954384
H   40.124588   15.698868   46.195824
H    1.373538   44.637131   84.600410
H   80.309990   91.312111   20.705402
H   81.226807   41.563084   76.848022
H   15.027029   53.896358   39.563980
H   44.792782   15.482265   51.024902
H   26.982336   25.558128    8.042555
H   98.200035   75.436569   80.228073
H   20.021118   86.018394   37.932556
H   16.599886   80.766495   15.743969
H   32.111973   58.540276   77.205345
H   91.455688   41.266113   61.586052
H   99.025696   38.703758   34.462730
H   95.298546   36.423492   54.604774
H   70.655205   28.154221   49.511108
H    7.941937   16.457632   19.243902
H   18.835945   89.630226   40.535229
H   47.167381   51.504963   51.161411
H   32.422665   71.819740    3.117087
H   24.858921   74.081810   70.056938
H    7.428493   70.144432   51.929363
H   95.042320   30.123903   21.921545
H   14.746842   65.940598   30.871490
H   53.369507   19.592409   20.526211
H   21.351582   15.833604   90.935242
H   72.753395   70.855278   84.914345
H   40.377613   47.696972   31.101019
H   56.261150   99.573608   93.760818
H   76.925835   98.742294   28.238176
H   34.425877   36.944195   55.197754
H   43.513569   30.350710   57.708225
H   24.911940   25.972050   47.343872
H   17.321756   24.368652   79.232735
H   67.262833    0.561235   49.775898
H    8.357712   94.184372    3.859719
H   94.075485   12.104206   78.771561
H   22.054169   77.803062   94.696434
H   95.752869   38.450722    3.071236
H   22.376396   55.965500   80.238342
H   32.160789   59.072250   52.033531
H   85.374313   59.641937   82.662598
H   84.465912   24.157059   76.940170
H    1.838825   79.399010    5.636188
H   70.988228   44.008461   16.089781
H   48.477341   28.337421   33.464043
H   76.342751   22.039936   70.250877
H   54.914421   62.431255   86.711838
H   52.251549   40.814377   85.659554
H   77.187798   20.541893   34.706257
H   38.631195   68.615868    0.874905
H    9.107828   67.712318   57.266087
H   40.407970   38.018059   86.420387
H   80.454407   98.175941   51.313290
H   21.232567   23.623602   79.019386
H   81.794479   29.222811   32.251759
H   35.280537   33.657181   68.542587
H    3.907518   91.268425   98.235413
H   51.101929   24.107658   36.917492
H   81.061531   52.310062   22.226650
H   79.565445   86.788475   85.857819
H   18.846485   33.492260    4.314393
H   71.861412   46.885574   52.746834
H   43.547855   14.050664   68.664612
H   78.168121   46.989109   26.255196
H   32.512695   23.425423    8.298366
H   41.925800   24.003628   70.046547
H   94.337318   73.760704   42.950481
H   62.507065   72.708641   91.508568
H   64.129341   71.511116   24.870815
H   30.351864   92.539490   38.761868
H   40.678684   95.408859   42.056835
H    8.400639   26.116121   41.278793
H   11.397991   39.825905   50.401573
H   86.565804   37.920158   54.259686
H   49.555347   13.272511   25.438797
H   27.538147   79.659355   46.426933
H   30.296278   91.037422   13.782053
H    8.359525   19.703033   49.523537
H   89.323631   38.604710   10.959881
H   64.517563   68.250343   58.486191
