200
TIME:    0.886, STEP:   886
H   29.321249   60.331059   26.385777
H   33.721741   42.309021   16.122669
H    4.598068   97.413467   77.167168
H   39.617813   84.524361   27.606956
H    8.351396    0.102023   44.370575
H   68.603088   35.281540   46.428772
H   12.718612   54.845772   62.155193
H   17.365126   16.780739    2.142377
H   13.662619   77.821548   31.960251
H   88.120773   65.848976   70.591652
H   34.710041    8.393824   13.375877
H   33.449097   59.265511   43.523071
H   27.029446    8.448099   34.815300
H   73.870720   55.932446   73.394768
H   88.433243   76.917534   41.389122
H   10.470896   99.349594   40.387421
H   14.599874   37.973068   84.071182
H   21.222813   14.222919   32.019505
H   86.518997    6.314763   51.993546
H   92.111473   70.833214   12.428473
H   65.837746    9.005741   96.244614
H   75.647408   73.506599   45.680389
H   75.660500   57.844513   33.635796
H   22.291225   93.948845   89.560432
H   31.324860   38.685104   22.359341
H   18.126341   91.005737   85.620689
H   11.406041   71.758949   75.055527
H    9.336286   96.778313    2.431070
H   38.276867   36.894234   34.555672
H   63.857376   38.070286   76.279678
H   12.518087   78.438210   16.984619
H   20.178761   78.646957    9.508167
H   11.514458   22.885702   81.069824
H   75.046333   64.282707   49.581696
H   16.987017   63.107857   29.304609
H   11.955465   35.193466   86.879845
H    4.805631   60.486023   90.804665
H    0.961372   61.465694   86.122604
H   29.161667   23.268749   58.791077
H   83.887512   37.031979   38.462006
H   80.696526   75.046234   22.966431
H   45.493423   29.560438   20.675449
H   65.070389   72.941948   74.315727
H   35.842117   94.609291   41.851803
H   50.849510   96.004578   67.676140
H   31.969004   97.026543   49.713581
H   92.147766   94.562592   10.342139
H   74.388695   65.540749   24.424149
H   12.063483    4.237658   61.632084
H   38.999851   20.716764   78.383072
H   62.840897   62.319588    2.267439
H   96.444176   46.816875   77.430489
H   69.601280   75.948540   16.368969
H   12.791943   95.816177   91.269554
H   49.855087   62.018097   69.881065
H   97.024834   56.434471   99.801727
H    3.586918   19.190041   42.724995
H   74.466415   73.596802   93.643089
H   14.549917   86.956650   22.750462
H   28.162273   92.361732   55.052261
H   48.327332    2.772787   23.361908
H    1.546990   17.955210   54.018761
H   89.244446   38.588211   63.090595
H   39.778618   66.073982   18.090927
H   81.732910   85.709534   44.346180
H   13.398519   41.658257   44.475052
H   62.044777    9.535378   99.181740
H   93.723839   92.918648    0.061246
H   39.500397   14.583011   53.803276
H   41.518345   52.889347   50.948093
H   58.181770   87.765244   90.560974
H   13.984810    6.841923   40.242847
H   97.996719   36.831280   77.864182
H   28.911432   94.765266   79.379677
H   87.011063   11.328815   37.237823
H   69.642174   96.270287   58.656136
H   92.697144   53.999245   63.007702
H    2.628458   17.733248   25.877602
H   16.445509   58.469566   20.618731
H   58.540745   87.064148   63.625519
H   70.785835   19.183992   91.542847
H   55.042149   56.972073   67.886589
H    8.479356   20.752378   71.378578
H    3.608110   82.983528   14.905932
H   15.904030    6.155069   39.474953
H   42.866524   63.171814   14.335243
H   64.808144    4.130230    3.252353
H   69.959328   94.501343   35.807709
H   85.458878   73.629517   79.497192
H   20.208511   15.003571   47.758480
H   14.163460   40.469494   77.881119
H   79.555626   94.203339   12.463444
H   77.948669    9.576412   77.331406
H   31.060045   71.224922   86.842659
H   41.493263   48.187813   94.844948
H   42.519691   42.152527   98.688194
H   88.068626   91.934441   26.150826
H   96.015785   39.660694   56.134666
H   22.379997   63.306793   55.170578
H   78.436684    8.424019   27.408121
H   38.688503   98.287598   99.359047
H   14.593131   86.429962   62.301231
H   36.570374   13.561112   39.529758
H   52.916557   69.132202   15.816451
H   24.482397   18.983238   46.031574
H   12.998266   95.145081   13.645783
H   89.380547   36.933613   51.828068
H   60.944347   59.077499   93.762276
H   89.213692   31.935303   30.369984
H   25.118555   19.053392    8.698954
H   55.693893   90.453117    1.250359
H   11.932295   79.590027   97.869545
H   45.874107   87.771042   79.883965
H   61.035881    5.470443   58.296196
H   42.292610    8.868581    4.121774
H   87.675163   86.900368    8.077372
H    6.014543   17.539141   91.710983
H   37.493603   58.793270   21.065605
H   43.395050   81.967194   51.613216
H   87.830620   59.568050   73.442062
H   47.296883   26.052235   66.351540
H   90.416397   12.176762   67.189926
H   47.810738   94.576981   43.193455
H   94.559891   44.072784   89.575615
H   57.586449   92.958015   71.447701
H   71.388809   80.027298   13.058598
H   79.329292   52.206223   46.106247
H   61.298409   92.636559   40.458523
H    0.417548   29.099979   70.168571
H   99.056519   21.087460   77.507149
H   74.686119   62.119904   28.098644
H   56.904274   92.458542   24.561253
H   90.328316   14.023794    2.181250
H   69.244522   29.565662   57.657497
H   36.338886   89.689392   26.731995
H   45.152374    0.797769   74.164497
H   69.962219   88.210670   87.497704
H   96.728508   44.050701   72.991264
H   63.198578   53.367737   71.397301
H   43.797874   78.108269   77.507568
H   82.599274   44.071419   35.777557
H   27.499378   60.638931   61.306194
H   34.238892   68.650246   77.594955
H   28.111977    3.143524   88.829323
H   70.666977   48.342499   70.192474
H   69.610268   73.104935   98.906792
H   60.009880   93.948784   42.656414
H   25.013023   49.372108   65.118675
H   82.455048   37.820648   91.522507
H   30.054661   95.727608   65.822205
H   53.451286   72.280991   46.467358
H   60.980858   89.234291   27.908150
H    6.186012    7.683575   80.787811
H   26.986439   15.970879   59.988201
H   39.228878   70.940353   72.439583
H   82.679237   45.130695   73.936722
H   66.073288   80.257477   88.404953
H   55.230492   26.295074   24.858597
H   82.815376   99.300064   78.647240
H   56.437115   30.585657    3.031637
H   60.301506   58.164650   66.239754
H   13.272810   19.708557   29.947563
H   93.026451    6.404421   36.963444
H   34.987076   39.157192   43.561089
H   52.768806   44.008263   16.171934
H   23.043682   43.884617   58.770489
H   63.776009   87.118355   59.069973
H   24.196537   60.324203   74.725662
H    2.851370   26.069399   35.331535
H   55.953308    5.584723   83.128754
H   67.023804   13.316257   35.921860
H   23.845839   41.452423   59.441872
H   50.154594   49.695156   72.247391
H   63.270966   59.087311   89.227112
H   41.412903   90.176956   68.856529
H   20.848564   51.154892   23.918541
H   28.781399   73.102371   13.930168
H    7.455421    9.816933   73.140518
H   59.080204    6.361758   61.580105
H   55.571457   61.384697   95.497963
H   69.623703    8.339520   26.699860
H   32.257599   30.894619   93.199463
H   35.890110   89.484879   18.865662
H   65.549019   26.415668    0.955918
H   93.876923   60.315353   75.735397
H   12.784075   41.674789   87.187355
H   53.846069   93.459557   13.578981
H   59.385727   94.588081   48.131165
H   87.909889   64.054115   73.926437
H   61.360863   54.759228   73.864761
H   78.679459    9.651520   74.688301
H   42.357147    2.484940   16.396109
H   18.449631   32.892670   72.605736
H   23.817991   89.312576   46.332150
H   62.725670   25.401196   19.703152
H   76.905289   11.968603   20.715858
H   13.755313    3.174493   25.270857
H   10.135071   84.567207   28.748184
H    3.298765   13.419455   49.125679
H    1.269985   13.106359   88.773834
