100
TIME:    5.799, STEP:  5799
H   25.159483   90.224388   93.836868
H   40.320229   19.102468   43.751308
H   79.440994   91.107681   55.274380
H   82.449951   93.730682   22.299564
H   43.229935   37.572845    8.471073
H   38.094807   94.925606   53.041264
H   49.043888   52.914845   43.942432
H   64.096329   90.289383   75.749428
H   11.077446   28.743286   35.060310
H   16.370138   99.648415   34.772038
H   60.846176   99.578125   81.160133
H   34.509583   14.364309   80.150124
H   74.020706   10.913212   48.803886
H   67.949059   87.201729   98.545601
H   51.035820   52.037277   72.020996
H   68.358566    4.527230   51.673553
H   57.786049   65.528160    1.294193
H   25.075682   12.658978   98.502968
H   35.588978   21.627916   68.874496
H   36.281494   82.664345   11.155451
H   20.155830   78.908813   99.849922
H   18.336121   51.782242   25.439835
H    8.317925   47.459328   66.434143
H   80.247658    6.201144   76.389709
H   22.178570   26.269989   79.366798
H   20.111208   55.227608   45.105522
H   62.025658    1.418404   15.026787
H   43.238827   27.117409   58.459183
H   37.264870   75.222717   83.050720
H   23.352398   47.314598   44.392136
H   44.283005   42.062969   50.580513
H   31.909519   92.292801   62.421577
H   78.831413   44.199547   20.216673
H   23.123367   42.278923   27.447901
H   36.624664   20.559740   77.846359
H   76.734879   39.631615    1.194421
H   35.998726   92.162720   65.403847
H   24.309750   52.831028   31.660839
H    0.293106   55.066093   82.346306
H   16.992804   69.301094   94.287498
H   38.930634   55.158821   78.967628
H   11.505937   64.343918   76.007713
H   61.191021   98.274826   20.342243
H    9.058756    9.978964   47.731087
H   53.634785    3.094510   52.346661
H    3.270230   73.523880    6.720263
H   87.039352   40.207840   81.130379
H   56.549114   55.097794   27.387152
H   34.540230   52.175896   13.148923
H   47.500294   18.995840   78.074020
H   43.103405    9.787268   14.557887
H   86.953484   25.635246   93.367683
H   29.160702   55.633301   66.073601
H   42.399139   12.584994   87.710838
H   79.069756   66.802521   49.672100
H    0.818389    6.433738   95.215149
H   63.881706   22.219307    7.520605
H   94.250397   29.243959   64.186508
H   47.630936   83.790779   66.291878
H   76.343994   73.519196   98.673241
H   25.506218    8.892229   62.259045
H   93.100075   73.965805   32.967865
H   67.755745   11.569462   35.815613
H   41.246666   73.352737   69.699356
H   62.497101   97.687271   35.605045
H   45.104149   53.987572   89.065468
H   22.304043   48.847767   47.038406
H   79.789085   49.188633   43.428333
H   45.924366   33.107170   96.528656
H   47.871269   39.815109   89.522095
H   37.888985    0.836630   92.584755
H   95.813431   59.067459   81.197922
H   28.886124   31.463890   13.060272
H    2.553103   82.399925   58.596489
H   41.764011   36.908115   41.001968
H   62.753586   79.234917    5.730921
H   93.466393   23.926950   93.606316
H    4.427897   71.539040   34.696991
H   39.595592   36.485233   82.382362
H   15.136688   93.120247   21.332012
H   24.349443   89.274979   26.581358
H   76.442413   82.078171    1.854210
H   84.674538    4.098827   82.211182
H   49.111153    8.391840   33.767910
H   69.965919   86.154137   85.604446
H   17.825634   22.060268   44.483444
H   54.456825   81.718239    0.062119
H   49.292870   41.031864   35.451149
H   76.028671   71.293251   80.762459
H   53.629780   70.690720   31.518160
H   61.341637   86.560776   55.926067
H    7.366174   31.619101   44.019730
H   57.180527    1.516764   67.450150
H    7.719018   64.991768   17.816576
H   56.330681   30.290546   49.340458
H   72.895203   66.735443   67.923004
H    2.305351    0.473610    3.683307
H   27.083918   73.391846   62.464294
H   32.461945   61.847507   59.311058
H   99.410294   29.823479   39.104809
