100
TIME:    3.692, STEP:  3692
H   67.647369   83.446167   95.765884
H   98.569817    4.918351   10.890030
H   43.216866   39.520836   80.003609
H   82.096298   80.539360   37.791943
H   62.102142   68.687584   65.599319
H   70.772224   97.208275   44.377357
H   59.471111   10.638391   79.172142
H   29.702377    8.007480   69.207573
H   62.871529   31.322739   67.689980
H   73.948296   69.395012   52.266205
H   56.834183   14.797928   84.117134
H   14.926254    8.751492   30.127962
H    8.414836   38.336365   58.173508
H   72.274803   93.696083   38.203243
H   25.409988   40.242722   73.302467
H   53.077423   88.813164   26.573336
H   27.218575   26.168049    9.485678
H   80.035851   15.158879   71.548523
H    2.772789   33.237480   57.869663
H   93.051018   27.412577   67.701164
H   45.188202   88.666870   57.033699
H   16.335983   48.985168    4.870366
H   36.450508   64.595421   26.718395
H   76.014687   80.961426   32.873363
H   97.537750   93.364731   63.806068
H   29.728292   17.600721   43.119446
H   43.713734   89.004959   73.226723
H   21.021906   28.769775   88.809135
H   91.449417   84.059280   82.649818
H   42.560349   99.462334   76.892151
H   61.360729   53.123737   17.279655
H   98.872475   50.503815   57.477119
H   30.416594   98.358513   30.401472
H   34.097900   35.372902   16.213055
H   88.997452   79.833153   49.544456
H   93.565056   74.511993    7.942686
H   33.910095   69.326645   99.380608
H   11.395905   91.383858   82.975533
H   89.231689    0.976503   86.530266
H   15.448650   66.551468   28.512777
H   82.930008   82.864944   29.327620
H   99.805191   77.558014   76.254715
H   43.042194   85.639771   68.149651
H   43.599457   74.647186   41.718048
H   36.402126   86.223938   72.045105
H   30.455776   33.336048   98.159035
H   70.578415   25.621708   60.905403
H   56.436588   33.396362   97.017998
H   72.949081   26.678238   97.197784
H    3.309749   86.932503   25.441250
H   43.262943   13.204639   92.344681
H   84.557388   21.148899   31.689075
H   85.458961   43.416199   88.443855
H   91.196129   46.969307   94.735016
H   46.831009   82.143982   31.748438
H   98.185745    8.650686   66.942413
H   30.308603   83.015465    7.127362
H   51.142082   28.224030   18.457787
H   81.456795   94.764175   28.045933
H   15.385625   11.566816   58.601326
H   92.594490    6.877961   26.538654
H   67.878319   93.577469   28.302879
H   24.709780   55.347832   80.298943
H   96.562126   61.878067   26.902241
H   78.865135   65.971138   39.389332
H   74.539803   58.732552   64.483658
H   91.352066   76.003174   45.312542
H   25.334236   28.687174   42.701550
H   40.911522   84.502762   28.676617
H    5.186739   33.839172   93.958832
H    4.793982   44.196449   17.860023
H   69.543991   28.994995   26.932304
H   66.266190   35.684536   67.087883
H   48.937710   15.741940   83.788292
H   40.177486   33.902065   81.276405
H   12.936994   44.195602   47.504284
H    2.164203    6.548203   56.344151
H    5.437205    9.309267   18.334520
H   38.557129   42.674160   58.877014
H   18.462837    7.878990    2.852185
H   83.124496   67.477097    0.651512
H   18.339111   68.339127   78.054565
H   51.391857   68.883667   81.544708
H    4.154356   28.091690   26.209885
H   72.559433   17.947170   89.854507
H   66.323547   44.668266   98.166748
H   13.735067   34.914452   99.592010
H   15.385424    9.703794   57.347298
H   32.304306   88.607903   97.995003
H   39.916195   57.378487   56.195755
H   75.114441   72.787865   11.430093
H   51.465752   73.162651    3.875466
H   22.118301   38.295731    4.512509
H    4.072961   37.179688   75.750420
H   92.756935   19.022411    0.926059
H   98.865616   49.937874   76.752251
H   69.548798   79.556999   24.859198
H   20.418585   47.672852   96.960152
H   32.834923   52.765057   35.793381
H   68.534035   83.890388   42.077927
