100
TIME:    7.323, STEP:  7323
H   22.097559   50.466560   92.441605
H   98.233994    1.685349   39.843891
H    5.646501    0.750446   37.380123
H   82.705750   30.943718   38.764187
H   29.578573   59.728085   67.148666
H   14.456904   93.274544    3.967014
H   69.170288   55.822758   63.121288
H   44.312935   22.134785   35.820404
H   73.614555   82.216736   39.130123
H   74.742500   21.532427   94.442818
H   19.087402   60.899357   34.361305
H   76.343475   90.754929   71.670006
H   76.786278   18.734127   97.367317
H   92.490425   82.504341   14.523090
H   69.551155   15.906364   98.740509
H    7.080894   71.232605   25.168142
H   35.235085   66.329025   40.029934
H   57.666714   38.501724   45.673019
H   59.320087   85.561951   49.164913
H   95.224503   50.299152   14.916452
H   29.719513   27.189468   58.481907
H   64.443481   53.805374   95.657211
H   87.969597   35.064735   22.830931
H   38.645599   24.432589   63.205238
H   67.671822    5.408730   90.621925
H   13.078747   10.220081    1.755312
H   30.608091   38.068497   45.269032
H   14.648561   98.252602    8.831010
H   70.402382   13.492018   11.010302
H   81.789825    9.595476   65.546074
H    4.260492   78.722824   30.006554
H   28.135830   50.182911   21.337242
H   86.179329   32.696297   57.510628
H   87.515587    2.613527   63.244858
H   98.706261    5.216168   70.589996
H    9.213745   58.997665   96.403419
H   82.169724   36.352173   85.489166
H   61.317352   24.937382   39.204788
H   35.966335   21.860594   34.658844
H   73.448051   26.628321   14.192506
H   34.775879    7.454496   14.871275
H   83.071327   70.320297   53.811146
H   74.308990    7.416403   30.421764
H   11.746138   35.558800   96.739983
H   21.440147   42.963192   82.758736
H   83.598137    2.591443   12.911745
H   98.945602   23.088005   95.757393
H   56.634579   70.794510   21.683254
H   79.087959   25.959293   52.357864
H   79.487549   42.194180   71.508949
H   42.998760   62.655182   30.621120
H   61.026455   84.218872   93.327271
H   60.775051   64.469971   77.561043
H    7.110596   87.721619   54.959793
H   57.726883    0.357056   62.636425
H    2.716547    4.830638   43.334595
H   60.496899   78.244255   52.465721
H   80.770187   85.320183   24.932043
H   67.824760   48.190174   49.298698
H   75.775673   90.657852   55.327049
H   21.641108   38.018196   43.436813
H   39.010353   59.780624   64.013565
H   71.220024    7.574347   31.310364
H   45.897396   81.654556   28.319759
H   22.984470   75.969086   77.527931
H   51.483917   78.225365   79.176758
H    0.030000    1.538662   20.616819
H   74.515999   36.348137   16.284348
H   21.878838   23.602249    0.945863
H   78.751091   16.460665   86.311630
H   89.493507   97.144821   74.306801
H   70.235420    8.447150   92.819527
H   29.518347   56.085857   73.989075
H   68.997841   85.946594   68.045807
H   15.227693   39.097912   56.536457
H   98.775047   76.909203    3.185037
H   31.867874   91.975899   20.615675
H   76.028183   71.888268   18.860849
H   12.678645   32.008762   99.381325
H   40.397781   10.100732   90.038277
H   54.174706    5.042153   17.668594
H   90.808846   91.961426   74.361443
H   81.071602   29.584509   27.348564
H   53.959354   38.804440   94.574760
H   95.760437   90.823875   37.869576
H   82.752426   78.041275   50.314606
H   56.241398   70.910713   72.732231
H   73.803001   19.079767   19.649788
H    7.655702   86.439644   68.298103
H   18.886915    7.986485   85.996323
H   23.710072   68.851189   88.110153
H   20.126741   46.238678   73.056465
H   54.871876   47.246494   85.303413
H   55.005386   57.450768   20.577402
H   29.983006   93.779373   84.361572
H   98.771332    6.555107   89.206291
H   81.337212   87.931808   16.036308
H   24.142237   48.800663   31.873114
H   59.862206   68.424690   31.659351
H   94.071541   90.714310   92.292160
