100
TIME:    4.201, STEP:  4201
H   33.225250   36.768158   95.299881
H   84.454445   32.509804   42.992516
H   51.966080   76.140938   74.030998
H   82.181732   59.569206    9.891315
H   57.543076    9.486178   51.797852
H   62.880680   96.656837   94.784904
H   32.796299   45.009876   18.976679
H   89.695976   52.041096   22.471745
H   50.359337   82.384308   35.648808
H   60.038094   76.703499   72.197906
H    9.488235   35.278721   35.088100
H   95.498726   34.264900   93.897728
H   75.992661    7.547001    7.589672
H   47.071785   92.127205   76.938477
H   31.602009   94.777435   48.834881
H   32.612106   44.294304   84.321228
H   86.287636   59.832912   55.821953
H   90.909264   90.405891   53.900303
H   10.700352   54.592087   84.687271
H   79.334984   16.603239    2.356259
H   14.983414   37.994770   43.220581
H   65.134308   49.660873   61.524323
H   29.654625   60.455757   12.154103
H   28.723106   87.066071   95.069672
H   79.332550   53.000008   67.565163
H   27.395792    2.461377   95.375816
H   99.821510   67.848404   83.323463
H   78.073242   52.528183    5.632832
H    2.517167   30.239265   58.588509
H   62.078125   86.864708   17.356026
H   81.391624   98.767845   77.009193
H   31.010786   36.442162   10.356407
H   66.271339   61.117073   76.256210
H   55.603958   88.726227   94.770454
H   76.345459   41.356804   80.539642
H   37.823063   14.469570    6.221035
H   82.729324   50.686508   39.487598
H   90.357445   82.071556   18.894917
H   67.748932   89.885796   37.203804
H   67.505318   18.899475   68.561279
H   48.142853    0.332244   41.319439
H   54.059189    0.400001    0.168450
H   47.426510   88.692093    4.916997
H   11.096968   83.175049   91.486328
H   92.250099   66.139191   15.601584
H   23.889011   43.044453    0.225331
H   74.554977   53.302757   65.793129
H   56.463772   38.638901   28.511971
H   87.830124   84.522858   76.895569
H   13.985110   94.675926   89.841286
H   43.224110   64.064079   97.711487
H    9.293676   73.918503   98.273041
H   96.013939   46.367554   58.883030
H   79.406242   38.662796   17.194908
H    6.304457   26.753733   36.078274
H   98.822617    8.114782   49.614853
H   62.575459   68.328590   55.537529
H   13.240542   80.154884    5.346405
H   21.600912   16.271149   88.970146
H   81.795883   50.691685   44.124153
H   24.703142   83.205833   86.852913
H   49.812920   88.839767    5.271056
H   59.267406   20.614407   45.395287
H   31.514219   64.647812   13.081356
H   99.066383   25.316730   86.789650
H   43.270973   33.428566   94.579712
H   50.514633   93.602570   69.886459
H   90.173836   57.797073   67.034691
H   66.281174   47.929260   96.752350
H   15.499006   59.442177   92.887024
H   88.631142    9.563551   11.753437
H   27.575783   12.102147   64.200645
H   33.078979   10.508701   54.036819
H   37.730328   83.532265   53.544670
H   64.716560   34.628254   19.862391
H   24.971285   76.818199   13.255930
H   48.378891   62.432766   65.345787
H   29.350948   76.028221   46.446175
H   62.964058   41.179066   64.557991
H   93.500122   80.158974   59.001305
H   93.081436   72.742935   31.072290
H   56.531975   71.663284   35.492920
H   83.594215   77.380463   30.024517
H   39.172173   71.647652   79.720200
H   47.775818   86.109642   40.512512
H   54.608212   63.366653   33.513519
H   47.730019   97.905991   23.863539
H   23.577375   68.952049   52.054276
H   42.867050   60.267128   93.832039
H   94.913406   36.435516   74.391525
H   95.944794    0.274278   22.179239
H   89.127884   11.437960   13.574903
H   54.745720   53.568993   43.874310
H   53.271076   68.055786   10.070890
H   83.957237   73.430199   12.621774
H   40.906982   29.837803   50.461891
H   29.146439    8.767358   95.585297
H   22.286482   52.006683   88.812859
H    8.587212   54.959156   93.158577
H    0.152353   70.826759   93.044220
