100
TIME:    3.165, STEP:  3165
H    3.286638   31.774620   96.248367
H   13.229904   76.346893   77.647263
H   34.158249    1.607314   86.187431
H   82.007843    2.251295   66.680237
H   66.822433   26.446209   79.888855
H   78.942268   97.779213   92.186302
H   87.092598   75.054268   37.960060
H   71.123535   62.413578   17.593700
H   75.826195   81.991486    0.860758
H   88.350410   61.828072   31.628000
H    5.854431   93.593353   34.880863
H   35.041771   82.335876   67.640907
H   41.936523   70.220444   10.554068
H   98.369087   95.320442   98.097069
H   18.998997   87.316971   98.632820
H   74.266464   34.906708   70.318703
H   69.596657   91.311234   61.510784
H   68.777916   40.786797   89.818542
H   94.563362   11.127704   30.106791
H    7.250038   38.602985   31.820520
H   76.461136   41.131943   71.337357
H   65.811981   48.285568   49.749283
H   43.486717   68.881477   41.796692
H   24.978745   74.640900   72.013969
H   16.385815   35.159180   59.914040
H   32.146618   33.303364   92.515953
H   89.157379   10.911038   62.772457
H   65.487358    4.171188   71.391502
H   79.990448   36.245224    7.561528
H   22.353317   12.506398   34.996552
H   40.617985    5.867659   58.974220
H   65.597237   65.063026    6.264140
H   93.295502   36.915367   82.925148
H   11.829682   83.669441   38.413879
H    2.097080   19.670563   17.455322
H   47.738918   33.111958    9.760297
H   83.363472   88.625961   57.854916
H   33.176201    1.025868   45.786114
H   11.475844   12.457586   37.599884
H   65.084839   15.886313   87.050026
H   18.946405   64.779877   16.911726
H   47.168999   53.906593   51.495300
H   38.502834   82.479507   30.085228
H   77.252640   65.817749   90.190880
H   82.114952    7.017895   26.948805
H   37.254765   23.284321   96.020027
H   66.461227   96.960541   55.843353
H   56.408443   27.969923   64.410194
H   57.543480   70.323418   18.220419
H   92.259697   78.915245   62.298923
H   43.303150   64.083206   86.788086
H   58.945591   70.051620   66.286858
H   74.530724   40.360474   19.050632
H    3.401829   55.569565   71.479340
H   88.790939   35.956726   27.267378
H   97.526352    9.205542   84.882736
H   96.899834   98.221718   57.005302
H   90.384026   77.992294   32.033646
H   39.893227   72.497589   68.505501
H   50.160599   71.061234   73.590462
H   59.351418   31.385181   67.626450
H   86.582573   98.482712   52.149597
H   88.932259   91.308891   16.436935
H   60.375504   59.011314   41.211880
H   57.948338    8.060216   90.311470
H    6.914274   84.931374   33.323303
H   33.635109   57.782772   19.868650
H   61.737572   98.546265   17.507902
H   14.644400   22.369606   61.730717
H   94.508850    7.332313   95.068542
H   21.529434   80.052971   24.182560
H   12.998786   46.485001   88.348328
H    0.627047   61.750675   80.597404
H   60.540569   49.092590   15.103188
H   14.769425   33.150196   41.326817
H    0.477643   10.419062   82.964905
H   54.317066   52.226151   47.024189
H   80.677780   43.769283   89.230682
H   13.286977   44.222126   52.994743
H   44.307838   36.581013   48.253586
H   72.815445   62.025036   69.153442
H   78.798157   64.897415   22.122328
H   18.048269   60.086395   31.350407
H   67.895996   82.994720   74.342438
H   98.219482   50.912815   40.941109
H   78.449951   25.309334   61.570415
H   78.537910   73.231636   74.462692
H    6.903776   51.896774   62.827499
H   21.366074   17.950190    2.305939
H   86.510040   79.059280   37.358818
H   53.547455   44.332195    0.300741
H   12.469984   33.531631   93.832283
H   88.337326   22.482351   63.758751
H   53.137730    5.212816   40.218246
H    1.868157   66.229156   88.815819
H   55.337616   70.748970    3.972471
H   11.379771   49.313366   55.167641
H   18.484632   43.185760    5.393656
H   57.940117   50.493366   79.935097
H   35.801037   97.415993   92.844910
