100
TIME:    1.421, STEP:  1421
H   21.225866   91.708450   97.845047
H   61.742546   81.789955   67.636497
H    4.180507   76.136650    6.654889
H   81.715118   74.104637   62.275021
H   82.443283   86.656944   27.175117
H    5.981126   99.668617   19.471838
H   78.495079   57.291500    1.576835
H    8.198502   11.537090   77.722908
H   18.697105   49.670074   10.639674
H   36.006828   36.786812   63.337204
H   68.077072   23.419285    2.871929
H    1.602799   94.918266   91.781120
H   52.871712   75.734840   83.892937
H   84.722237    0.696099   65.379982
H   97.784294   43.096516   82.466629
H   44.389359   87.445183   15.085456
H    9.821135   75.969986    2.734484
H   31.510460   25.597610   50.283005
H   67.393196   37.966576   38.225857
H   54.232338   75.636826   13.080881
H   79.952484   14.751930   18.676266
H   98.602470   45.975494   98.258888
H   66.771629   83.065315   91.692932
H   87.015205   53.724400    1.537681
H   78.761101   73.475929   47.046700
H   40.143322   85.267426   55.981644
H   39.544357   83.408340   28.164427
H   12.642242   22.767178   13.742724
H   42.069305   78.016327   90.001457
H   55.480526   55.670242   96.354454
H   71.999855   49.472916   96.966888
H   55.479954   13.253121   67.714989
H   70.451981   64.515114   25.811857
H   38.142372   43.496498   11.887079
H   45.450645   51.503487   11.258293
H   96.104797   96.110367   15.754737
H   16.091743   52.496437   20.434393
H    5.259857   32.945805   22.717808
H   86.837601   50.173836    5.930219
H   29.351446   79.154320   49.835979
H   38.131279    4.941212   75.822678
H    3.909812   75.634026   69.561096
H   23.480742   72.021255    4.114177
H   88.619255   36.586029   19.672213
H   33.394577   75.824203   77.708817
H   59.754642   90.020180   88.941414
H   51.084522    2.394550   39.765572
H   56.315304   10.013929   56.501354
H    6.569432   14.762581   87.789871
H   55.692707   52.377926   84.278160
H   43.436207   32.455574   68.399658
H   74.191017   31.880526   80.776138
H   38.356499   30.248169   20.339764
H   43.784519   84.021019   94.522110
H   27.634026   83.077637   12.464306
H   95.344223   11.038544   44.252609
H   86.336990   48.544731   91.136284
H   20.246895   42.692024   76.953568
H    2.349057   98.808609    2.391987
H   65.245956   37.010944   23.192955
H   49.338726   12.489617    3.604181
H   48.477081   14.718624   31.058914
H   70.619385   10.251583   36.072121
H   40.616905   49.524376   88.559837
H   88.724068   47.351582   27.895819
H   14.050880   71.630959   30.205961
H   73.558975   97.491394   35.668957
H   82.207497   98.804977   34.134617
H   27.724449   47.682327   71.110878
H   59.170822   19.614885   98.740906
H   76.908867   98.715446   45.104771
H   56.798351    4.364893   60.661751
H   14.339756   48.016850   25.311901
H   98.915306   59.457169   18.754341
H   30.684391   30.665613    9.119068
H   59.255039   98.644920    0.315032
H   95.972282    3.383911   16.178080
H   98.741486   57.806152   92.915894
H   29.664942   49.339695   33.533638
H   29.837112   31.562922   98.500862
H   38.689854   43.982555   64.918434
H   47.942524   53.507767   67.954300
H    7.708904   30.973837   65.243103
H   47.922726   33.758404   33.637337
H   83.138229   60.001114   10.002399
H   18.585667   61.252628   40.461906
H   62.060097    0.034634   91.301773
H   78.830460   91.526047   80.971855
H   85.171822   15.053412   16.573734
H   40.703003   50.812843   75.013725
H   82.175697   50.160770   63.470654
H   83.426567    2.379228   60.596100
H   76.458260   70.207565   28.847731
H   84.572853   99.426277   22.629787
H   32.025105   22.444855   48.739159
H   11.290405   39.616753   94.052261
H   49.809860   49.228664   55.466171
H   12.082574   28.336639   33.300713
H   41.018761   42.975666   26.020710
H   27.490311   42.203800   60.823311
