100
TIME:    6.567, STEP:  6567
H   73.222977   19.795210   93.133743
H   19.111073   60.721607   92.175636
H   92.648026   46.359917   46.256802
H   82.578857   62.090057   80.203735
H   36.351028   99.131439   87.647507
H   26.182697   94.093575   29.097931
H    8.794414    4.772034    4.001059
H    3.733047   56.729984    5.233047
H   92.198479   54.903137   86.717674
H   95.391304   10.676678   64.842354
H   89.408691   30.479864    7.183182
H    5.195129   52.860340   25.482506
H   25.012894   64.471107   72.491386
H   29.921875   84.834541   56.992695
H   60.368782   83.436028   35.095448
H   37.479660   37.355263   87.922363
H   96.027931   16.327503   71.208260
H   41.499508   75.288895   71.877968
H   47.547962   53.848618    9.338099
H   15.592041   66.351845   63.444511
H   74.581635    2.451015   79.002266
H   91.965027   52.801773   60.037567
H   98.063286   41.213234   44.461487
H    8.888611   15.388643   19.350615
H   94.711372   65.365112   85.038673
H   16.610231   32.522530   72.885307
H   95.798912   69.496353   30.266928
H   78.436966   62.965065   83.843277
H   53.964088   44.901379   46.746033
H   52.800755   28.306786    5.446609
H   74.509483   10.931569   89.818871
H   80.401703   71.070145   91.323997
H   32.927425   88.009712   89.404175
H   55.573387   71.896378   95.094772
H   17.521835   62.456001   24.592440
H   43.495464   99.783958   98.779762
H    9.660100   64.037720   25.919104
H   92.566917   38.774387   85.856560
H   67.878998   38.331718    7.921472
H   44.655239   97.402328   54.713131
H   86.444031   81.512321   97.061378
H   46.783035   67.355637   15.217393
H   67.802887    2.881364   75.814812
H   60.017170   22.869589   22.822428
H   87.017006   72.790298   18.066217
H   93.357292   88.172318    9.840380
H   93.039352   81.973465   88.501472
H   56.590130   63.007950   74.906677
H   56.987495   88.571266   82.514267
H   63.614643   30.687044   24.366934
H   43.050671   35.642410   22.652874
H   24.280540   54.371460   42.953621
H   45.092342   60.086426   21.467142
H   24.615936    0.053249   21.599609
H   17.920643   34.105225   56.205303
H    1.774950    5.625876   69.070618
H   12.571958    0.058162   80.563744
H   37.062897   56.715508   44.405258
H    8.202968   16.242207    7.334640
H   25.664833   32.549686   76.829491
H   73.951927   73.174576    2.381758
H   65.842262   66.817368   98.216751
H   19.893667   59.162880   83.151550
H   93.983566   77.536331   48.847439
H   92.977859   36.348690    7.124870
H   97.926422   15.807892   34.476135
H   60.685867   75.399109   84.116531
H   26.738304   93.110512   80.143173
H   84.200569   77.923599   48.362690
H   63.427910   78.443779   87.904907
H   13.500193   48.582703   83.373817
H   32.488224   33.579178   37.426743
H   78.810303   93.476562   93.368958
H   85.643776   33.794193   12.964899
H   78.791740   38.003819   99.220718
H   80.906334   28.455475   54.052795
H   63.206631   57.411060    7.208330
H   40.509930   21.319838   77.111198
H   76.423744   34.229374   90.948769
H   77.473343   51.284309   55.168236
H   39.378738   97.220291   72.483353
H   34.079590   87.058777   37.609333
H   33.252647   16.941442   55.352028
H    1.949235   74.111473   63.622066
H   32.571388   38.115822   11.155323
H    0.148224   50.272125   97.815475
H    5.749848   25.878395   36.683342
H   61.644432   79.576355   27.488258
H   91.966171   28.531771   74.481209
H   85.727768   39.092350   58.969383
H   92.771324   28.031345   72.144821
H   64.190399   89.380798   58.650589
H    6.410894   24.561649   26.840769
H   81.941933   11.585185   69.601730
H   43.053337   61.498764   66.988892
H   36.328888   36.407318   28.255035
H   41.344475   44.546249   59.515213
H   25.601496   11.394750   47.048279
H   95.876488   65.160103   94.981453
H   47.112003   10.115471   65.121498
