100
TIME:    4.211, STEP:  4211
H   32.548981   35.851105   95.290726
H   84.178261   33.051720   43.623085
H   52.137970   76.860390   73.913658
H   82.183411   59.157219    9.343162
H   57.453506   10.287723   51.526703
H   62.725574   96.646004   95.775200
H   32.272236   45.685154   19.758692
H   88.909996   52.906193   21.553547
H   50.113518   81.422852   35.019306
H   59.764809   76.847084   72.589447
H    8.558060   35.681095   34.124889
H   95.117104   34.766151   93.185905
H   75.354538    6.942257    6.596010
H   46.576637   92.096382   77.699432
H   31.723660   93.884186   48.354153
H   32.210037   43.419670   83.491150
H   85.483498   60.494305   56.732292
H   91.122887   89.919594   53.553547
H   10.856106   55.011627   85.214157
H   79.065514   16.390875    3.037097
H   14.389999   36.999210   42.949203
H   66.093018   49.674149   60.672729
H   29.521111   60.374428   11.867982
H   27.793999   87.186005   94.327026
H   78.974884   52.206932   67.639015
H   27.350206    2.165748   94.435417
H   98.959236   67.432755   83.521828
H   77.229431   52.994949    5.963395
H    2.734619   31.146515   58.115791
H   62.461578   86.617210   18.150970
H   81.785149   99.664604   76.218025
H   31.642195   36.165901    9.430656
H   66.975685   60.385414   77.157089
H   56.026474   87.809784   94.349159
H   76.096893   40.600883   81.148621
H   38.692356   15.252823    6.189573
H   83.688492   50.320297   40.275562
H   89.944084   81.888603   19.600559
H   67.326874   89.667900   36.234718
H   66.563393   17.963310   69.348022
H   47.459412    0.675345   41.555035
H   53.160446    0.848829    0.638243
H   47.512646   88.752060    5.639301
H   10.458426   83.342590   92.464111
H   91.382637   65.744598   16.457335
H   23.759998   43.235188    0.265982
H   74.633102   53.846581   65.889107
H   56.464306   38.741898   29.130714
H   88.122482   83.694611   76.496704
H   14.194842   94.828056   89.141823
H   43.223347   63.098656   97.816925
H    9.779631   72.990616   97.616608
H   96.221306   46.425537   58.302204
H   79.174614   38.499603   17.636154
H    5.508263   27.630121   36.163342
H   98.835129    8.104254   49.274429
H   63.209385   68.040047   56.488609
H   12.495933   79.210518    5.088818
H   22.389563   16.693703   88.202477
H   81.135941   51.460346   43.839729
H   25.333979   82.740746   86.073189
H   49.458000   88.746689    4.818566
H   59.946346   19.931995   44.709557
H   32.200912   64.702286   12.809826
H   99.463264   24.518047   87.720894
H   42.656654   32.931435   95.170990
H   49.712326   93.948334   70.369247
H   89.483070   58.368973   67.512749
H   66.779526   47.210724   96.125214
H   15.701605   59.945183   92.865967
H   88.313606    8.883142   11.633465
H   26.751236   11.770249   64.932762
H   32.426971   10.014088   53.780396
H   37.510143   82.899483   52.950493
H   65.198738   34.642521   20.620485
H   25.207720   77.459068   12.583075
H   49.286865   61.565990   65.522636
H   29.820766   75.374382   46.998466
H   63.443565   41.149693   64.669533
H   93.009705   79.614388   58.139793
H   93.277054   72.846390   31.669939
H   57.282326   71.728592   34.656738
H   84.226845   77.547394   30.976971
H   39.860115   72.503365   78.806808
H   47.288910   85.484184   39.543121
H   54.378033   63.734009   34.207947
H   48.397896   97.178909   24.340376
H   23.738317   68.151421   51.950287
H   43.074570   59.710335   93.750252
H   94.029312   36.024063   74.749039
H   96.354034    0.814244   22.390421
H   89.867783   12.189970   13.765448
H   55.386742   53.869057   44.647625
H   54.237644   68.662323   10.745138
H   83.784355   72.534508   12.851552
H   41.732941   29.442944   49.945381
H   28.352715    9.341222   95.010193
H   22.323179   52.091827   88.652794
H    8.110832   55.002262   92.321022
H    0.773472   70.570107   92.080933
