100
TIME:    1.971, STEP:  1971
H   84.031891   41.270523   97.341507
H   46.443321   11.608873    2.330348
H   13.634550   15.705695    0.197935
H   81.807434   51.445335   32.125561
H   77.516983   30.741856   12.263142
H   97.452766   99.072762   73.941032
H   49.669498   94.428337   44.587624
H   64.969582   59.117527   27.223175
H    5.177055   96.789673   76.020332
H   20.977697   44.683998   84.872063
H   16.917404   45.549870   49.892368
H   80.613266   22.486483   52.630882
H   17.887421   42.459236   29.227837
H   57.489113   99.000679    7.233257
H    4.474180   93.969849   56.029510
H   22.275475   39.338326   69.431412
H   65.602005   12.342384   52.808479
H   43.263924   98.850731   31.215534
H   75.961769   61.041298   67.200851
H   39.415672   63.954716   50.527473
H   47.314697   59.998959    3.748402
H   51.340214   46.701431   51.428535
H   59.428337   78.592201   75.957306
H   35.914284   60.320774   60.691719
H   59.089470   29.855865   51.104393
H   37.621426   68.877197    4.430808
H   92.117180   60.546986   39.078655
H   66.233688   48.439327   31.922617
H   54.028381   27.916288   64.002007
H   76.570457   42.057877   40.077053
H   93.635292   98.794662   53.445263
H   90.207428   98.057625   16.798698
H    9.191736   24.274277   75.360199
H   61.380745   93.092453   88.716522
H   31.779499    9.927711   44.747902
H   43.925701   39.316441   13.864125
H   68.842773   32.354836   63.772404
H   82.525764   22.879200   61.528156
H   62.113464   38.432961   53.216713
H   77.546776   27.664564   93.108231
H    0.546211   23.813387   88.780441
H   54.478943    0.315926   95.401093
H   28.218214   75.319443   43.840500
H   53.497337   45.805008   73.447311
H   85.685707   54.123539   24.774134
H   52.658924    0.510594   91.173775
H   56.892017   32.065262   44.465279
H   56.344677   15.676657   90.532265
H   22.644995   69.210289   65.852310
H   67.226799   60.749279   45.809689
H   43.394245   79.356026   74.198761
H    0.920534   80.845352   44.670071
H   49.765877   33.437256   88.397179
H   31.049152   75.049614   18.791151
H   83.848923   31.293036   17.131239
H   96.032394   10.460522   25.529312
H   21.205065   32.674828   43.446007
H   79.292328   90.750702   62.787308
H   45.724846   22.048292   60.169647
H   28.953167   79.285812    7.550212
H   84.032639   86.911324   60.719952
H   28.956841    9.598251    6.171824
H    7.923952   72.745781   98.339767
H   78.385010   52.516243   73.629875
H   10.553683    3.423029   79.117020
H   80.263680   44.288734   62.726254
H   29.431959   16.505930   62.222301
H   44.215401   30.261360   60.427799
H   55.138008    8.162827   36.615051
H   70.314026   47.279274   97.582764
H   59.444420   61.293724   38.508396
H   11.449529   86.111313    0.928572
H   78.478561   20.813099   11.208584
H   86.813560   24.650408   86.066170
H   57.200073   31.448198   50.813335
H   72.256294   33.894966   63.304943
H   45.909248   55.714584   25.907061
H   24.581493   21.841398   23.290516
H   56.029457   47.728367   39.668434
H    2.863740    1.608564   51.117744
H   49.453022   49.672558   97.791206
H   89.209259   57.099686   21.963850
H   42.508015   40.154816   17.627750
H   85.757149   80.822609   83.400818
H   56.358292   25.596741   56.686081
H    5.925917   81.453545   78.655418
H   98.793343   60.045166   17.528334
H   87.684372   47.491470   75.251991
H   96.585396   84.430336   12.074261
H   92.075363   28.182915   94.676964
H    4.684035   79.859283   75.085648
H   24.121420   43.743359   71.076759
H   11.747349   86.690109   71.397018
H   37.732616   32.788013   59.711845
H   22.514496   73.180023   61.378014
H   56.718109   17.898756   65.644211
H    6.153945   80.792229   23.835464
H   14.101979   33.019562   24.499561
H   14.819223   45.346500   79.949081
H   61.647110   28.075890    7.850101
