100
TIME:    8.351, STEP:  8351
H   52.577873   56.194572   91.500443
H   69.842270   57.393909    4.661833
H   23.316950   74.708466   25.311893
H   82.878296   88.588554   82.416328
H   20.366949   42.126728   39.274582
H   98.514526   92.160835    5.773166
H   15.294658   25.237207   43.512241
H   63.514160   11.070123   41.433006
H   48.344353   83.378006   74.422333
H   46.664497   36.292988   34.696144
H   23.465347    2.263359   35.339111
H   37.107323   42.282955   98.496269
H   11.234194   56.510437   95.207916
H   41.589241   79.335762   92.754311
H   82.037239   24.080338   49.300461
H   65.747635   81.319908   39.835236
H   52.569313   34.324383   33.612831
H   79.645111   88.479439   10.040100
H   75.333237   28.687901    3.326195
H   67.522964   28.471399   84.907539
H   68.716545   24.848743   30.584093
H   62.998844   55.170059    8.113449
H   74.244316   26.706564   93.417633
H   43.129738   36.730438   86.856140
H   30.903873   23.884018   98.213966
H    8.231752   79.916000    5.015520
H   41.962982   95.335098   65.668076
H   27.908865   46.236149   42.812546
H   92.754982    6.760294   62.415703
H   21.207470   84.151993   47.268860
H   44.720501   70.905296   48.674538
H   93.044640   21.783344   26.170143
H   58.591106   57.483330   50.120987
H   30.952297    8.403395   19.936808
H   73.122337   27.382103   33.133961
H   98.576233   39.516396   93.172096
H   80.768242   98.702400   66.491478
H   18.830509    6.123013   11.748862
H   92.572838   99.464745   35.038033
H   76.622070   30.390409   95.073669
H   64.519806   42.724564   39.090420
H   96.436996   74.351608    6.294539
H   83.155914   13.582975    4.675545
H   46.103848   52.815819   97.252106
H   32.268700    2.406881   70.728813
H   70.327751   22.195301   17.088152
H    6.981107   78.993660    5.627454
H   56.697323   81.382584   85.290123
H    9.140266   40.819954   11.348478
H    1.071236   57.841000   99.629967
H   42.928173   63.408379   41.459671
H   10.987068   88.828079   25.845589
H   82.093559   70.430664   17.859064
H   83.301544   70.953247    0.323781
H   75.875710   90.446457   71.374771
H    3.996919    3.749282    8.339050
H   25.669319   48.581963   50.237083
H    4.223458   88.238091   98.451439
H   48.900982   91.627663   70.380661
H    7.939822   69.674683   26.088280
H   86.487808   90.211426   63.285114
H    2.524615   50.212143   17.497852
H   41.010098   37.426178   60.817322
H   16.487591   87.254471    0.407303
H   63.790825   93.863220   73.261108
H   88.333900   27.120262   39.960651
H   17.552137   37.078114   70.248337
H    3.504972   95.139397   65.428696
H   73.115875   49.736732   36.472816
H   99.629204   68.091873   84.131271
H   56.849148   27.198658   61.977577
H   85.582687   74.313866   68.169907
H   62.490387    5.237562   47.631535
H   46.369007   20.885448    6.965977
H   64.747177   40.611614   34.479984
H   23.079119   42.793854   34.013268
H   25.231968    2.999384   38.848244
H   24.323027    4.672802   75.638062
H   61.972145   28.989201   10.853420
H   89.984856   54.101097    1.475186
H   74.299889   15.677285   79.110794
H   67.947586   98.627991   88.359367
H   46.094131   46.776402   25.249989
H   24.685204   26.772570    0.683198
H   45.706299   26.515705   38.217140
H   59.096256   15.799205   21.702164
H   24.899263   96.166420   21.751213
H   90.336082   36.818695    8.991127
H   28.992615   29.201494   59.890388
H   27.997950   65.695450   22.745626
H   65.780022   24.361164    9.819968
H   96.188332   23.554276   92.648323
H   20.768543   78.089500   64.800232
H   54.356918   19.818348   89.893929
H   12.206806    1.697103    7.984074
H   83.679932   65.960083   36.109062
H   99.739616   46.925392   56.915108
H   22.157953   99.668129   11.234213
H   10.890609   72.863838   45.554157
H   57.922741   64.330399   93.261444
