100
TIME:    2.625, STEP:  2625
H   39.803864   81.295494   96.742752
H   28.251152   47.068695   43.584156
H   24.876173   62.756989   92.523796
H   81.917206   24.500669   96.277405
H   71.659164   83.162842   94.530884
H   87.313850   98.364235   38.708401
H   15.394585   38.590523   95.731270
H   13.566475   15.698330   67.176109
H   89.100426   33.910431   34.852398
H    3.107359   54.074471   10.480693
H   56.083923   71.865143   86.896072
H   55.653496   55.268311    6.079055
H   76.285378    2.891113   64.224388
H   25.106453   96.984871   57.004757
H   12.429859   35.551331   24.590479
H   95.978195   82.136932   15.143526
H   13.020349   55.592903   12.352456
H   57.239861   67.046867    8.540188
H   86.150581   88.474792    1.658974
H   21.797310   50.068592   95.054878
H    8.505402   94.889801   85.995865
H   14.041656   47.568710   95.735306
H   50.696495   73.273262   57.246216
H   75.150558   68.164459   12.117829
H   35.698112   77.986603   55.929359
H   34.622662   49.391468   43.130234
H   35.721947   33.358524   52.056667
H   11.052402   78.965843   53.541798
H   68.248810   87.252724   33.086296
H    1.648210   25.871536   92.068932
H   19.364786   57.443600    1.697303
H   31.501167   79.985207   56.254662
H   55.259884   76.424950   34.277687
H   89.013283   33.157089   61.163818
H   15.520846   60.490265   84.572670
H    0.787492   90.692009   11.616300
H   31.570992    8.402182   15.304885
H   55.493553   10.909092    7.681187
H   34.270897   24.221884   89.930511
H   15.948122   66.440422   44.564007
H   55.850132   46.252636    4.189305
H   95.701103   29.669380   26.125601
H   33.851498   79.241287   91.080132
H   11.735395   56.767212   37.392662
H   28.956633   28.322193   80.739113
H   44.221470   12.984638   93.828255
H   62.240765   67.594086   50.656433
H   56.379604   22.410154   30.998024
H   41.760246   15.047443   39.761917
H   80.938286   70.700218    0.069724
H   43.344349   16.216700   81.094421
H   32.702000   20.158428    1.734431
H   63.332664   37.229370   50.414375
H   15.905643   64.381798   47.649994
H   31.784096   88.626633   22.679701
H   96.850693    9.773201    3.265610
H   62.663853   13.803924    5.646758
H   30.593597   28.989014   45.942337
H   97.305809   49.681728    9.960157
H   85.795898   29.554213   88.949348
H   25.287901   56.495808    9.730830
H    5.747604    3.509663   76.582443
H   52.285572   28.148306   53.473068
H   23.293009   56.073845   55.874508
H   36.512638   51.190212   40.022339
H   40.087227   11.776344    1.395792
H   76.959694   39.115627   93.796646
H   99.038902   67.663696   91.692780
H   87.731590   61.170570   95.596352
H   83.566467   80.173409   96.205627
H   38.677605   16.794519   30.661060
H   57.523064   64.406448   48.812447
H   35.837234   88.463585   94.440178
H   72.423485   83.264618   47.196999
H   88.733421   32.379780    0.390258
H   87.714149   75.811394   19.300728
H    5.287552   99.028946   37.474323
H   55.307598   79.078957   59.410404
H   87.391159   45.808277   46.967369
H   70.790382   65.992508   94.775192
H   62.251408   56.438488   36.878361
H   38.280708   61.370804   67.276588
H   83.884567   51.072113   79.918213
H   30.746670   36.786224   23.665039
H   24.513924   84.689133   93.288216
H   90.875488    5.474205   24.071331
H   42.472542   12.494049   48.713486
H   98.212479   95.130722   68.446144
H   10.158495   48.016060    6.723988
H   34.253033    1.273872   18.055725
H   31.448456   15.174664   88.896927
H   72.514496   92.923149   83.540840
H   53.708881    6.288204   21.992496
H    0.943301   72.459450    3.809394
H   11.205513   14.597626   76.406761
H   10.735869   92.073433   31.864456
H   54.242050   18.323681   86.223244
H   16.502974   38.587982   14.034060
H   83.664604   48.165638   25.166550
H    2.262667   11.277969   44.860870
