100
TIME:    1.393, STEP:  1393
H   23.119314   94.276199   97.870682
H   62.521416   80.271950   65.870262
H    3.699275   74.122185    6.983682
H   81.710419   75.258202   63.809902
H   82.694077   84.412621   27.934334
H    6.415342   99.698952   16.698904
H   79.962669   55.400723   99.387184
H   10.399246    9.114765   80.293648
H   19.385399   52.362152   12.402225
H   36.772026   36.384773   62.240677
H   70.681564   22.292637    5.569021
H    2.671545   93.514763   93.774223
H   54.652687   77.428871   86.676018
H   86.108650    0.782423   63.249233
H   97.443779   45.597401   83.812454
H   45.515152   89.894157   17.409653
H   12.072241   74.118301    0.185169
H   30.912102   26.959244   51.253708
H   66.956978   36.791862   36.750790
H   54.986641   76.231552   11.174509
H   81.614044   17.539497   19.436230
H   95.917656   45.938538    0.642970
H   67.145470   83.293037   92.494019
H   89.616707   53.388584    3.617261
H   79.762566   75.696754   46.840126
H   40.271709   86.101837   58.606003
H   41.958939   84.572159   27.608793
H   15.004700   21.460232   12.817203
H   41.460480   75.475922   91.325066
H   54.406857   56.363235   94.128502
H   70.898415   46.961990   99.182587
H   53.712009   14.026704   70.307091
H   68.479813   66.563759   23.289396
H   36.959328   46.062538   13.066652
H   46.146629   53.620064    9.553368
H   93.670349   93.910904   15.851134
H   13.406182   53.521828   18.228094
H    6.417107   33.458286   20.742008
H   88.096268   50.771553    8.613933
H   31.988729   81.775475   47.632885
H   40.044701    3.980469   75.163010
H    6.426292   74.377495   68.245605
H   23.239561   71.853348    2.091727
H   90.407280   36.116699   16.934526
H   35.823257   76.929062   75.312820
H   60.115879   89.486122   88.827766
H   50.788868    0.884048   39.526314
H   56.313808    9.725645   54.768871
H    5.751015   17.081459   88.906693
H   55.105457   51.951748   86.236656
H   43.438343   35.158760   68.104431
H   72.830238   34.478817   82.614151
H   37.775658   30.085815   21.965969
H   44.432865   84.477745   93.286514
H   29.863182   80.623108   12.226704
H   95.309189   11.067970   45.205795
H   84.561783   49.352654   88.473259
H   22.331963   45.336250   77.674759
H    0.140824   97.625565    4.541569
H   67.093796   34.858692   23.989342
H   47.572491   13.791703    5.787249
H   49.470856   14.979298   32.325912
H   68.720276   12.161053   37.993019
H   38.694084   49.372063   89.319908
H   87.612801   49.588001   25.288229
H   15.770920   73.022926   28.550383
H   75.805435   96.523254   34.317150
H   84.141640   97.203659   32.796055
H   26.328850   49.694229   72.866859
H   58.603653   18.206575   98.799866
H   77.797966    0.620577   45.440586
H   59.106976    5.294207   58.611610
H   16.165485   49.401768   26.029888
H   99.531395   61.229172   20.418465
H   29.334400   30.625772    6.996415
H   58.593021   96.850487    2.199045
H   93.430168    5.810752   15.682653
H   97.425995   59.637115   91.369690
H   28.322748   49.421726   33.221321
H   31.210281   33.087944    0.913081
H   38.141911   43.692883   63.244915
H   45.841541   53.324905   70.295609
H    5.937248   30.506536   62.576237
H   45.996487   31.362406   36.194832
H   84.501572   61.752609   12.716640
H   19.230167   60.224033   38.517509
H   60.190041    2.070475   89.966629
H   78.379715   93.767807   81.262810
H   84.590767   16.612360   16.802845
H   43.178680   51.964912   74.012688
H   81.029823   48.648960   62.879345
H   81.354851    0.273434   60.062683
H   74.661690   69.368454   26.681486
H   81.866676   97.727974   20.741894
H   32.509174   24.953003   48.095726
H    8.977722   40.722466   95.498489
H   52.032394   47.621792   57.076462
H   11.979768   28.098236   33.748680
H   42.352623   42.854969   28.366077
H   25.751419   42.923069   63.520088
