100
TIME:    2.888, STEP:  2888
H   22.018539   57.176994   96.501968
H   20.935341   61.329109   60.174152
H   29.396887   81.678574   89.437752
H   81.961349   13.664400   81.862488
H   69.303497    4.243436   87.399673
H   83.236580   98.079308   64.755119
H    1.611109   56.350327   16.298302
H   92.895187   38.450390   43.027775
H   82.635384    8.623983   18.297344
H   95.920403   57.850761   20.780214
H   31.620300   82.447586   61.561810
H   45.614822   68.451218   87.358391
H   59.555458   86.979248   38.085297
H   12.084220   96.174232   77.018593
H   15.629272   12.059636   11.948171
H   85.403778   59.134064   93.311867
H   91.871284   72.988556   36.294384
H   62.860153   54.257240   99.421570
H   90.247917   99.506699   15.514162
H   14.712250   44.484417   12.961054
H   92.898712   68.708588   78.856628
H   39.255722   47.917847   73.338409
H   47.185066   71.134300   49.721725
H   50.715027   71.318726   92.585243
H   26.292107   57.127373   57.869675
H   33.416737   41.555965   18.479452
H   13.042969   22.425817   57.275654
H   88.860924   91.241798   62.236095
H   73.967422   11.114135   20.654749
H   11.732503   19.362350   12.976437
H   29.715475   81.027802   80.889580
H   48.107216   72.717552   31.907417
H   73.785126   57.182320   57.970802
H    0.125454    9.054787   50.083755
H    8.983068   40.609558    0.588732
H   23.654903   11.351873   10.712358
H   56.795105   98.770004   36.028316
H   44.624176    6.095524   26.239811
H   23.168762   18.492235   64.443558
H   91.176163   41.818481   65.257240
H   37.876995   55.276005   10.386180
H   72.064171   41.473801   38.481339
H   36.116871   80.818420   10.077270
H   94.941315   61.175560   63.106354
H    6.143381   17.946423    3.244503
H   40.828426   18.000965   94.895729
H   64.297165   81.896637   53.182655
H   56.393650   25.117968   47.270988
H   49.447266   93.265862   29.270029
H   86.452232   74.701241   81.673859
H   43.324284   90.825439   83.867447
H   45.483601   95.754089   84.470055
H   68.786659   38.754333   35.138657
H    9.815823   60.090004   59.255768
H   10.845612   11.680762   24.912058
H   97.179764    9.496801   94.312469
H   79.337959    6.214723   30.660378
H   11.009986    4.151373   39.168289
H   18.047607   60.793896   89.769951
H   68.439407   49.770008   81.469002
H   41.878304   44.266003   89.224808
H   96.413841    1.061193   64.683716
H   70.127739   10.210917   35.431656
H   41.353310   57.504501   48.733265
H   46.952618   30.183929   64.516014
H   23.930641   98.701912   16.945873
H   55.859016   48.207218    6.494395
H   80.871773   82.704651    4.265700
H    0.838351   42.273064   79.102669
H   88.895813   93.400459   95.651825
H   30.326221   98.899757   27.505791
H   35.838486   55.678040   68.068695
H   18.688643   75.453239   87.698235
H   66.636650   66.622452   31.566124
H    1.414557   32.755001   20.328060
H   93.930382   92.666252    1.604463
H   29.166300   76.234756   42.125462
H   67.663818   61.882740   73.934311
H    0.004211   45.035763   49.902924
H   57.892403   51.668163   72.117447
H   67.396835   59.159344   52.597523
H   58.014938   63.088394   45.285011
H    0.522768   55.462402    4.967662
H   48.839558   59.291473   99.643372
H   11.707410   68.239594   67.793236
H   84.823792   15.134647   42.334774
H   60.037712   93.371788   61.254303
H    2.445681   74.074188   65.709236
H   15.616760   33.372398    4.572234
H   11.000147   90.454422   27.457325
H   42.211487   29.375885   94.451004
H   91.973831   12.700502   88.553154
H   70.581024   14.170460   42.337914
H   26.363796   88.411369   21.542049
H    6.657785   91.039795   82.450432
H   32.458572   81.687630   18.280243
H   33.366104   33.416805   71.098015
H   17.468115   40.827271    9.825863
H   71.135826   49.299328    3.136793
H   18.596315    4.524093   19.529055
