100
TIME:    2.186, STEP:  2186
H   69.492096   21.553879   97.144669
H   40.462715   23.265806   15.892115
H   17.330191   31.173092   97.675026
H   81.843521   42.587608   20.340675
H   75.591248   47.975056    6.433855
H   94.119637   98.839836   95.232384
H   38.402142    8.946030   61.400902
H   48.071007   77.718323    7.482103
H   99.891884   76.118362   62.487507
H   15.102892   47.771080   93.290184
H   96.918640   54.200916   29.183218
H   72.408386   33.263382   37.326698
H    4.211551   29.451500    7.858725
H   46.843437   98.337990   23.595448
H    7.089465   74.764984   45.693855
H   13.630169   20.533699   51.584732
H   48.316315   26.560677   72.383118
H   47.858459   88.395332   23.761101
H   79.311302   70.060318   78.528900
H   33.623703   59.389706   65.165688
H   34.556290   38.594425   97.912689
H   71.954300   46.985931   33.120163
H   56.557777   76.843620   69.806107
H   15.938469   62.899357   44.723206
H   51.399651   12.804741   52.690582
H   36.635593   62.470501   84.278084
H   73.578285   51.608883   43.345127
H   48.093193   58.474804   39.029263
H   58.703293   47.422798   53.838585
H   84.814705   36.736679   57.169186
H    2.093024   18.075727   36.433506
H    3.782632   92.116386   96.895119
H   24.336174    8.544430   94.729095
H   70.464836   73.388931   79.658676
H   26.434517   93.675171   57.839294
H   62.618786   56.206814   13.125161
H   89.464874   24.480516   80.713623
H   73.638512   18.944073   76.700844
H   52.802597   33.786133   32.472176
H   57.295933    7.536847   10.023699
H   85.852287   31.190725   93.845749
H   35.155975    9.965680    5.501885
H   30.070135   76.608734   59.369408
H   39.767860   49.408791   94.469650
H   67.035271   45.641445   43.173279
H   49.885143    4.611378   92.046425
H   58.807728   43.720245   46.439659
H   56.356159   17.890268    3.835229
H   28.929060   51.404140   57.275429
H   71.734398   64.021706   30.772877
H   43.377842   58.599419   76.465683
H   11.368551   60.895527   30.555119
H   54.225906   34.683899   75.911064
H   26.070782   71.542610   28.277941
H   66.733826   50.141918   18.955275
H   96.301407   10.234568   18.210205
H   34.834484   26.471138   63.894234
H   63.282806   70.446823   57.249588
H   62.680832   31.133204   43.663109
H   14.766005   95.810394    1.435471
H   97.594803   76.911934   43.957523
H   21.326893    7.596651   96.443817
H   22.507442   58.084602   83.590012
H   93.147888   53.685791   67.793617
H   19.087448   86.251953   99.138763
H   67.055824   33.600410   75.438728
H   12.181536   23.939039   72.602249
H   29.363945   42.557312   70.706039
H   65.853935   92.714317   23.129982
H   74.670715   58.093903   97.130035
H   52.617409   46.664467   35.929089
H   93.721741   78.975922   16.669973
H   64.460388   10.178905    5.695469
H   82.082878   11.044625   73.288078
H   67.565819   31.754118   67.111557
H   77.338005   47.675293   48.838963
H   65.430573   37.078911   29.710142
H   34.682583    7.783034   35.164791
H   66.337433   47.097759   42.067337
H   92.319710   89.899841   32.595253
H   53.660442   51.896832   10.641102
H    5.340572   58.503799    3.985125
H   56.111187   43.743835   38.105503
H    0.546319   99.220436   63.762909
H   45.889771   12.147877   35.844177
H    0.977277   89.350044   93.585609
H   13.152731   44.412918   27.780333
H   91.145447   30.277954   73.014595
H    1.047213   72.459282   10.315428
H   73.067337   19.336670    2.363159
H   13.482788   91.469467   79.626053
H   40.030476   59.911991   75.174278
H   25.541618   93.133286   88.029861
H   58.513828   45.830196   74.208504
H   18.796711   53.921806   66.318657
H   74.476212    9.408962   54.539246
H   89.088211   93.130714   11.470583
H   14.891383   34.850159   21.058990
H    4.577477   46.273281   61.938560
H   74.999313   22.553753   87.142487
