100
TIME:    2.608, STEP:  2608
H   40.953522   82.854485   96.758316
H   28.724037   46.146919   42.511799
H   24.583960   61.533920   92.723274
H   81.914352   25.201113   97.209167
H   71.811432   81.800217   94.991837
H   87.577400   98.382652   37.024769
H   16.285534   37.442551   94.401848
H   14.902641   14.227633   68.736916
H   89.518318   35.544907   35.922550
H    3.571878   53.830376    9.814944
H   57.665222   71.181107   88.533661
H   56.302383   54.416183    7.289104
H   77.366814    3.919656   65.914116
H   25.948204   97.037270   55.711002
H   12.223053   37.069855   25.407652
H   96.661713   83.623810   16.554724
H   14.387416   54.468536   10.804879
H   56.876572   67.873573    9.129608
H   85.885735   87.761703    0.763389
H   22.255280   50.429546   93.897438
H    9.514206   96.582123   86.457336
H   12.411850   47.546143   97.183014
H   50.923470   73.411522   57.732590
H   76.730042   67.960571   13.380424
H   36.306145   79.334961   55.803940
H   34.700611   49.897945   44.723595
H   37.187943   34.065258   51.719318
H   12.486784   78.172340   52.979809
H   67.879166   85.710335   33.889915
H    0.996380   26.292282   90.717461
H   18.695730   55.919239    3.042289
H   30.427773   80.454979   57.828438
H   54.062366   77.668770   32.746193
H   88.295006   34.715042   61.880020
H   15.943440   61.775330   83.537407
H   99.309402   89.356621   11.674729
H   29.940472    9.024805   13.965379
H   56.196136   11.220242    6.481578
H   34.988525   24.592241   91.577957
H   17.549330   68.031837   43.226414
H   57.011852   45.669376    3.788707
H   97.228966   28.906357   25.326975
H   33.705067   79.139343   89.852135
H   12.820917   56.482262   35.730560
H   30.431253   28.992870   79.284401
H   44.440792   12.660389   93.759254
H   62.107822   66.669586   50.493141
H   56.378696   22.235125   29.946159
H   41.263367   16.455334   40.440117
H   80.581871   70.441597    1.258689
H   43.345646   17.857985   80.915176
H   31.875822   21.735901    2.850488
H   62.980011   37.130798   51.401779
H   16.299282   64.659096   46.899811
H   33.137512   87.136383   22.535475
H   96.829422    9.791067    3.844330
H   61.586178   14.294480    4.029889
H   31.859467   30.594501   46.380203
H   95.964973   48.963451   11.265261
H   86.917801   28.247488   89.432869
H   24.215479   57.286327   11.056264
H    6.350903    3.667929   77.351562
H   51.132412   29.307627   54.639328
H   22.125647   55.981369   56.336109
H   35.837811   52.548038   38.439095
H   41.131569   12.621468    0.390652
H   78.323616   38.527958   92.975906
H    0.213210   66.691467   90.880081
H   86.884392   62.392082   96.662483
H   83.221985   79.318428   96.241425
H   39.217415   17.951246   30.865013
H   58.924728   64.970642   47.567719
H   36.945648   89.304558   94.875969
H   72.797539   84.340347   48.207359
H   87.913719   32.355526   99.101547
H   87.312340   74.721916   20.444614
H    3.744046    0.502356   37.173679
H   54.508907   80.190483   58.471508
H   86.575867   45.858212   46.777618
H   71.624092   66.918304   96.239761
H   61.918728   56.262615   35.862293
H   37.005112   61.259781   68.698097
H   82.809097   50.788330   78.299042
H   29.577168   35.331512   25.217804
H   25.341732   85.752411   94.936180
H   91.266663    4.849766   22.890804
H   41.337151   13.730087   47.902863
H   97.938812   96.491791   68.623055
H    9.805679   48.962608    6.863074
H   35.756123    1.973343   17.448017
H   30.752747   14.256715   88.537918
H   71.256668   91.644829   83.216850
H   52.618107    5.778841   20.677277
H   99.300209   71.428337    2.663189
H   11.499477   16.120430   76.016106
H    9.331740   92.744759   32.742523
H   55.591446   17.348080   87.200920
H   16.440588   38.443237   14.306072
H   84.474449   48.092358   26.590523
H    1.206903   11.714636   46.498199
