200
TIME:    0.227, STEP:   227
H    9.071686   62.518139   15.117285
H   27.848415   32.688381   89.369431
H   18.410170   68.569145   44.707878
H   17.404295   76.821815   44.839642
H   15.348167   83.399765   53.845409
H   90.041504   53.167835   65.934258
H    3.170888   55.313354   49.399738
H    2.597304   88.325012   25.533775
H   86.900528   87.701118   48.036552
H   11.318829   75.080986   96.585228
H   11.740550   94.316475   92.550858
H   30.724045   41.675854   12.122847
H   10.855105   86.576439   61.824486
H    5.018166   53.152088   41.639370
H   20.249519   71.844513   43.010578
H   29.679314   26.501999   54.603443
H   83.595856    7.109653   16.063219
H   36.870884   82.542091   43.751808
H   64.592888   30.172560   42.292461
H   90.014893   79.883202   37.974667
H   57.929062   76.109306   26.436062
H   90.318443   48.317467   71.075661
H   95.394501   62.635979   49.448135
H    8.332883   87.940666   91.626846
H    2.681415   12.181117   45.874226
H   18.671854   61.759384    7.385908
H   98.644035   58.535908   48.559174
H   94.211945   69.593155    0.697065
H   10.521058   56.924873   38.414486
H   93.636879   20.416092   99.075592
H   13.378465   50.906132   16.178919
H   32.162453   63.201645   93.283066
H   27.437408    8.705808   73.020363
H   96.856804   63.563736   38.063072
H   48.612293   90.338181   34.317974
H   33.485905   50.218357   79.327408
H   85.891342   74.709587   85.857338
H   33.557953   44.419037   15.751947
H   53.551384   46.866127   44.142666
H   90.207420   39.741947   64.204193
H   80.500443    5.831076    1.092783
H   12.692247   43.379490   40.216610
H   76.935928   88.080566   49.845562
H   37.310226   62.602612   18.283394
H   28.332844   75.898521   43.894783
H   41.242733   14.176820   42.546494
H   79.729172   26.849079   95.893959
H   90.432312   65.550804   48.115005
H   86.577614   29.245495   61.156960
H   62.582611   17.742838    6.262423
H   78.517487   70.660660   28.383934
H   21.635069   35.474224   63.262096
H   51.826206   94.794266    7.758146
H   22.600073   81.909363   81.510651
H   77.749161   76.674049   91.193787
H    5.472305   72.670319   78.222534
H    5.467584   16.696266   49.794041
H   67.266647   58.277187    5.538074
H   28.455475   74.226334    6.812066
H   43.403961   96.062172   67.234550
H   50.461620   15.630039   42.616322
H   89.703117   16.394087   48.966553
H   71.089165   24.937164   85.323502
H   23.811060   65.133789    3.377254
H   71.139397   75.885269   17.398010
H   39.249645   16.056065   32.629623
H   86.660744   23.436201   85.566536
H   97.414223   91.420372   87.014175
H   16.060074    5.677571   62.144348
H   45.311798   41.403404   50.983288
H   58.470867   76.367287   72.933609
H   32.505829   24.163540   44.855827
H   77.081192   25.438351   99.931068
H    7.441843    9.250436   60.194199
H   78.986740    0.661141   68.223976
H   52.985168   19.535568   62.962421
H   95.482529   29.466238   72.329460
H   27.036745    5.733215   48.412071
H   11.431725   29.114227   35.226383
H   68.471977   90.739449   94.878143
H   42.816349   30.321762    1.326587
H   26.064848   68.824020   88.259117
H   11.050432   13.523702   90.660080
H   25.097996   61.434502   93.427826
H   39.371151   99.186386   58.150608
H   24.300959   86.229172   28.053440
H   35.272572    2.757020    1.741521
H   75.439598   19.028179   10.951858
H   65.290306   72.018333   77.119019
H   23.509243   85.464462   55.008526
H   41.787777   34.780571   80.812309
H   84.145981   88.421402   98.084183
H   46.642136   17.008715   96.100075
H   60.610809   94.900696   68.747711
H   24.795492   57.102051   67.398346
H   69.810432   27.418644   29.672916
H   79.129250   14.728815   97.769341
H    7.252071   28.236700   48.470486
H   37.312477   69.908257   52.835178
H   66.978394   97.716125   27.247232
H    9.286243   80.066956   68.327644
H   90.088890   76.459892   65.936310
H   22.909918   37.645035   30.321165
H   21.251228   67.915482   89.646126
H   25.355972   27.643574   24.666061
H   86.908447   27.409359   44.499401
H   65.042480   29.935362   56.319733
H   64.827766   33.775242   19.244286
H   72.466187   40.253750   98.503975
H    3.949127   28.241644    5.473639
H   47.023502   96.179749    0.786704
H   85.471962   63.018345   90.363083
H   57.319828   80.123802   94.218140
H   63.268211   19.677610   75.289215
H   64.284081   81.427231   27.228476
H   14.569031    6.177626   78.347923
H   33.109432    8.259657   84.028549
H   40.837070   26.356606   34.238365
H   18.368637   57.225536   84.182159
H   70.439560   46.415401   48.857807
H   40.418892   21.673046   87.945816
H   18.850021   27.787991   47.805767
H   31.922979   22.370846   23.643505
H    4.268845   67.786667   18.434484
H   77.305367    9.273967   93.243088
H   47.246075   61.996712   25.782391
H   95.709770   49.129227   71.556824
H   75.713028   87.468010   34.892780
H   92.307739   52.954239   85.186523
H   67.115089   24.210962   66.280136
H   48.084183   85.649872    2.914546
H   82.198990   85.922440    9.020413
H   92.480202   81.962250   97.278450
H    1.558038   12.669642   49.547062
H    3.783873    1.605177   57.014259
H   62.704323    1.643535   83.873123
H   68.871193   86.531395   54.691498
H   91.107460   64.626778   83.403778
H   45.973434   44.151833   71.553162
H   43.440903    9.713427   95.818710
H   49.974064   63.450962   14.490019
H   57.836761   40.615833   45.943840
H   55.423405   56.521713   99.822731
H   58.308769   26.998289   77.909004
H   39.690876   70.198219   48.643452
H   45.463810   61.751728   30.468784
H   44.423790   96.834724   47.374977
H   43.007416   73.902603   68.899559
H   64.837738   65.335007   98.073692
H    9.047573   88.532867   90.483421
H   76.678444   61.089169   51.442337
H   33.240131    7.469404   48.559719
H   75.571831   32.324680    3.920980
H    9.566237    0.844344   76.273773
H   13.097038   53.535721   60.518002
H   63.116180   43.496670   53.661007
H   59.175182   60.493752   80.601852
H   45.861240   36.868477    9.419569
H   12.976785    1.783315    3.087015
H   63.825424   57.474243   77.742188
H   53.828251   84.937531   83.761536
H   44.214474   23.123671   35.656597
H   64.659767   35.136723   37.237457
H   10.797502   19.797760   71.755005
H   59.078659   21.647249    9.696811
H   11.689717   64.852837   62.372887
H   75.123688   97.777229   52.083885
H   23.620857   30.341091   47.475147
H   93.896317   28.212486   36.887630
H   25.879696   10.557817   90.549744
H   79.613342    5.479219   35.977165
H   46.612038   65.929932   57.418194
H   37.421764   78.012833   90.789810
H   71.384209   74.855911   73.942856
H   72.042084   95.134338   99.842682
H    0.506008   47.590630   23.274273
H   35.551292   52.515049   86.364151
H    1.614786    9.188461   64.713974
H   75.934029   21.681772   69.286888
H   86.918930   54.315651   86.201614
H   81.655159   84.723557   42.021557
H   18.965454   30.090176   69.141579
H   66.233612   90.179245    5.812733
H   51.197853   25.196262   76.712029
H   85.354851   88.898232   78.450394
H   98.988274   36.114075   83.889137
H   30.899384    4.747250   98.977127
H   91.045601   66.673897   25.071672
H    6.994848   61.115433   66.394836
H   49.377171   58.344028   65.538773
H   47.199242   31.454449   79.394295
H   47.759487   84.575912   24.789972
H    3.811711   17.214750   57.508419
H   35.330692   63.012211   33.051292
H   85.340729   54.835999   21.858809
H   75.296402   10.351546   29.744478
H    9.374867   85.204933    3.027990
H   29.287300   97.664551   47.333340
H   12.086668   11.575520   78.598473
H    8.143331   35.433159   97.929405
