100
TIME:    0.789, STEP:   789
H   63.965492   49.665962   98.423660
H   79.322746   47.524090   27.770048
H   93.320557   30.667366   14.075714
H   81.609039    0.142247   96.914909
H   88.104050   35.999352   44.311714
H   15.781513    0.354927   56.883572
H   11.619560   14.613991   52.153599
H   57.872452   56.859592   35.750816
H   34.232872   10.434307   50.423027
H   53.278435   27.713367   38.587021
H   26.864166   97.989838   63.748016
H   25.726124   63.239189   36.766670
H   93.074356   13.971951   46.708443
H   16.014957    2.644599   17.282894
H   90.098381   99.548096   12.845331
H   69.800125   42.725750   67.546371
H   60.632118   34.174820   45.191460
H   18.004662   56.331619   72.193161
H   57.550285   11.451625    4.931427
H   71.291878   88.989655   70.015205
H   17.456161   77.670258   35.829201
H   38.002369   45.141327   52.074314
H   75.209740   88.205330    9.775253
H   45.734894   46.144566   48.477379
H    1.365495   23.600872   42.384041
H   43.041210    4.100567   15.220477
H   94.042252    9.678573   15.622984
H   65.966454   93.267044   92.853378
H   28.327240   20.676229   19.875736
H   31.246347   71.312088   46.111538
H   47.138767   92.796471   46.976891
H   15.574940   30.712967   26.222374
H   25.933537   10.755495   68.876305
H   11.439164    1.415665   38.511299
H   61.159996   99.277657   72.772263
H   41.155823   46.465343   17.929495
H   55.473751   75.640968   70.635445
H   31.379921   44.513248   78.118492
H   15.249327   63.665169   66.505829
H   88.878410   38.319675    0.110531
H   81.321869   83.253532   60.932034
H   60.710350   47.269485   39.868595
H   18.036955   68.231339   58.462448
H   28.975920   25.993952   57.877083
H   88.215492    0.762326   23.624533
H   67.874641   78.036430   86.412361
H   44.411182   68.304291   34.365181
H   56.281551    3.506917   17.396742
H   88.093925   67.103256   12.999942
H   42.437641   42.758480   28.481186
H   43.484425   93.470345   61.735966
H   43.476295   90.525620   22.265213
H   25.246088   26.583618   57.047188
H   58.418613   94.329979   66.632950
H   77.947937   27.672441    7.101284
H   94.553452   11.702744   65.767380
H   46.270157   66.780693   31.028008
H   67.308044    2.375972   93.231888
H   52.502846   72.105606   50.912060
H    6.953649   88.432693   41.168541
H    9.471104   41.878494   52.878227
H   70.907990   20.601456   59.656876
H   27.749950   53.349846   79.429543
H   97.218086   46.086449    5.717329
H   63.641113   97.827538   69.040062
H   52.875771    3.049614   92.837700
H   24.265921   75.639099    5.154685
H   25.864311   62.660934    3.921363
H   96.224846   93.093826   10.746899
H   46.369003   87.827782    0.071618
H   96.977104   41.718945   52.684605
H    8.910833   25.340294   14.388071
H   55.547699   79.278786   41.517895
H   12.824716   99.449539   56.315987
H    0.213649   29.766352   61.209522
H   44.312351   58.141296   42.839725
H   38.591000   58.160515    4.995192
H   69.048981   99.129509   58.015041
H   99.369972   51.191257   26.486088
H   60.831497   65.985283   52.948090
H   26.321995   37.444225   27.144943
H    0.521929   49.380325   20.802292
H   67.717659   20.426199    5.048257
H    4.445032   79.677345   91.363655
H   13.911476   99.530533   71.267784
H   33.132969   38.035770   96.573677
H   19.850256   45.986198   61.165661
H   68.656509   42.124626   87.539116
H   72.056587   50.241615   21.745090
H   96.578171   76.819061   52.418880
H   56.311680   16.035925   50.123974
H   36.664967   54.846260   48.556122
H   35.907112   51.270866   79.953880
H   23.487383   61.092781   80.016304
H   42.951252   79.056061   34.215965
H   59.089752   64.574272   26.696251
H   99.975632   12.959357   91.812729
H    9.762094   22.955536   43.411980
H   71.125938   40.251362   78.960365
H   88.241013   58.438725   21.694033
