100
TIME:    4.840, STEP:  4840
H   90.013344   78.168709   94.714859
H   66.806282   67.137787   83.283569
H   62.949867   22.112766   66.532967
H   82.288986   33.243217   74.867073
H   51.819611   60.704849   34.471451
H   52.969433   95.964561   58.068325
H   99.306679   88.157394   68.947311
H   39.471840    7.324076   63.802235
H   34.651497   20.947250   95.425682
H   42.575188   85.878593   97.217346
H   50.050018   60.990437   73.535568
H   71.113060   66.294853   48.412270
H   35.216629   68.905830   44.095215
H   15.433103   90.157631   25.566088
H   39.373177   37.698792   18.117455
H    6.917537   88.404861   31.279202
H   34.903206    2.100080   13.992643
H    4.568148   59.318386   31.746073
H   20.653038   81.397552   18.352739
H   62.116371    3.033167   45.862312
H   77.064262   74.380524   25.878693
H   26.395859   50.509155    7.107539
H   21.123055   55.258812   93.871353
H   69.353043   94.728729   47.612953
H   56.477692    2.322479   72.284340
H   24.482870   83.574341   35.286640
H   44.720482   41.284237   95.998940
H   24.156967   82.354553   26.756403
H   16.412590   88.214867   28.382168
H   86.580795   71.049614   68.154732
H    6.538730   56.067005   26.453545
H   71.357796   18.789124   51.200996
H   11.279943   14.364988   33.822380
H   82.602722   30.165527   67.849693
H   60.462112   93.053085   19.450928
H   93.370895   64.518242    4.210631
H   44.017822   27.285137   89.838486
H   63.943714   70.380867   63.985485
H   40.775219   75.962273   75.280426
H    7.319899   59.079483   18.835085
H    4.472450   22.256117   56.374004
H   96.628838   29.079184   30.186846
H   52.930592   92.523987   51.071533
H   70.292252   93.882080   53.965187
H   36.821659   40.929207   70.282372
H   15.645023   55.232410    2.822971
H   79.547165   88.053062   71.926109
H   56.497898   45.220398   68.049706
H    6.510327   31.600857   51.405701
H   27.386990    4.399244   45.147667
H   43.175358    2.372349    4.448189
H   40.346809   14.623178   56.326073
H    9.267514   50.072693   21.768934
H   64.605186   28.234779   45.391685
H   55.427124   82.756599   41.514103
H   99.622147    7.442513   27.861786
H    3.087778   49.890648   16.311867
H   65.659073   19.809374   88.887314
H   71.996452   43.271332   39.913658
H   39.628368   99.805603   25.949471
H   65.011597   53.488445   37.031181
H   27.134092   82.892044   76.360474
H    2.647479   77.010056    1.577125
H   75.394447   68.128693   95.731781
H   24.429613   74.282013   46.297443
H    4.017105    1.662407   32.361900
H   99.245758   15.694516    0.736668
H   46.033928   94.341446   97.582588
H   98.125870    2.014799   56.677452
H   28.445055   91.580078   91.541473
H   68.340630   66.086395    4.087523
H   74.886383   90.894623   10.983500
H   91.413879   78.899635   37.651329
H   23.661495   43.094975   15.577209
H   95.527718   35.539913   68.302826
H   40.079475   17.770914   70.257858
H    6.395199    7.046909   76.646461
H   59.372326   34.244427   81.735176
H   93.609291   39.302120   71.685509
H   62.162445   45.357304    3.950960
H    5.583288   79.353683   69.264412
H    4.475650   75.836441   82.059471
H   24.015192   88.061218   90.880707
H   83.133820   26.328527   21.358070
H   16.661196   46.140709   78.568733
H   39.899784   86.835915   77.887436
H   90.407372   51.445496   54.333435
H   33.862015   17.792555   45.409401
H   56.127548   24.688543   88.605843
H   38.417576   10.143654   97.236633
H   22.095451   34.778088   35.673748
H   36.409885   59.493454   25.750204
H   95.707008   72.745308   93.289169
H   15.031697    6.813996   53.154125
H   72.910072   16.191475   27.303669
H   93.685715    4.605824   17.456902
H   78.426048   45.438244   58.836166
H   24.631445   57.447388   78.584724
H   78.146729   57.713634   39.636597
H   39.841587   54.429493   31.487604
