100
TIME:    9.197, STEP:  9197
H   95.366852   78.612953   90.725906
H   46.477097    3.234860   58.006405
H   37.858868   35.572426   15.381594
H   83.020294   53.734428   36.043541
H   12.786177    9.937233   16.337608
H   85.399048   91.244301   89.555634
H   70.953987   82.363625    9.670559
H   97.020233   84.259232   63.756805
H   27.548058    2.037841   21.168440
H   23.556322   48.440296   67.820473
H   44.772491   36.302170   53.846474
H    4.815620   84.688805   38.276085
H   57.287506    5.306807   11.135277
H   99.701599   76.728157   57.136875
H   92.312752   48.511452    8.617950
H   31.732563    7.325700   69.609436
H   84.538918   90.281197   10.627546
H   97.738266   47.312843   80.712479
H   88.513260   64.180984   47.894375
H   44.731243   10.505388   42.507103
H   18.513695   40.627205    7.621967
H   44.105694   56.293137   36.068756
H   62.948997   19.829329   69.213379
H   64.524979   46.851044   24.024652
H    0.647772   56.793282    4.459781
H    4.241278   54.975937   25.403006
H   69.012276   60.170452   82.449692
H   56.524757   85.724579   70.778191
H   11.150924   83.515953   22.424595
H   53.646553   63.213699   14.523796
H   78.016380   46.768223   81.741730
H   46.461445   98.410446   47.851707
H   18.180870   95.586563   26.335348
H   66.697235   30.872437   84.296898
H   52.067863   63.328041   84.605759
H   72.117035    5.780652   90.512856
H   61.910080   67.720955   33.152851
H   83.862648   90.643181   71.447044
H   56.865429   81.030785   53.054626
H   96.939117   51.191483   61.636566
H    6.702079   71.752029   59.021816
H   25.140945   77.669205   49.483273
H   90.436554   18.658646   65.780479
H   92.087440   67.020729   79.967598
H   58.883369   69.036842   43.124805
H   59.409508   38.329510   20.525156
H   13.595439   25.002890   13.751791
H   56.748959   90.096115   37.635395
H   33.867332   70.753944   77.602936
H   18.828833   70.721031   40.478657
H   42.870083   81.732277   50.379745
H   52.103481   10.325321   70.310219
H   99.636803   75.336060   68.726486
H   63.705879   57.150391   37.653694
H    8.515759   64.586990   78.565048
H    5.050611    2.859372   79.539200
H   79.301331   24.171165   30.698782
H   41.227966    8.343733   76.661156
H   15.626583   27.375151    5.431307
H   52.110744   34.700352    2.026024
H   39.855755   50.867146   97.327156
H   72.498405   42.337692   79.220741
H   98.444534   79.696068    2.804565
H   74.582214   91.862961   77.442200
H   97.367004   26.294247   52.045399
H   36.362526   85.063560   89.982780
H   49.676193   66.323822   11.092964
H   45.066132   43.524117    5.872391
H   15.278334   88.948578   83.413116
H   16.811279   10.586878   82.336929
H   29.979443   69.635826   51.831154
H   15.916875   46.224022   30.182533
H    7.330262   63.387386   25.938068
H   27.747868   67.340553   56.698921
H    5.500260   41.857327   98.624481
H   43.081512   97.013908   77.087265
H    2.066301   29.776646   53.854881
H   64.063820   49.358009   22.365456
H    2.544280   26.504230   20.295427
H   48.495537    8.014797   28.591362
H   90.862053   24.429544   29.675575
H   31.431831    4.118522   17.583250
H   99.603828   60.924595    5.818164
H   82.887642   99.166115   23.413754
H    4.513885   73.591843   56.207626
H   39.623127   46.875786   80.450729
H   81.401680   34.655342   62.091637
H    3.941778   69.122536    0.219449
H   46.549320   82.098274   52.971199
H   53.201107   30.886818   52.985794
H    0.401801   70.040283   27.685936
H   58.783764   87.181992    8.768380
H   74.998978    3.469306   30.222712
H   36.119690   71.144272   46.937130
H   97.578705   25.918278   27.422369
H   53.556091   32.551758   92.411728
H   32.587334   95.475899    8.260012
H   20.524973   41.527744   94.248192
H   70.589195   76.517067   74.692879
H   10.473310   42.623928   11.763279
