100
TIME:    9.914, STEP:  9914
H   46.878326   12.860969   90.069473
H   26.675434   42.089863    3.213708
H   50.183399   87.157127    6.964207
H   83.140640   24.194216   96.741837
H    6.361338   67.407806   96.897438
H   74.283447   90.467522   60.563263
H   33.377651   30.779009   65.740891
H   40.665451   46.288364   97.922539
H    9.922829   33.101364   76.037285
H    3.970000   58.735355   95.893929
H   78.078827   65.152405   84.779961
H   77.452339   20.627529   87.240028
H   11.566807   61.906418   39.881813
H   64.199509   74.518166   11.699245
H    1.021582   84.465485   74.134544
H    2.901582   44.614304   10.091964
H   26.882210   37.704514   75.898880
H   13.072326   12.423565   55.857338
H   99.683563   94.256561   85.680374
H   25.415699   95.278046   91.323845
H   75.965408   69.248848   88.159058
H   12.845184   57.244965   75.009613
H   53.375641   13.999054   48.713074
H   97.904007   55.428436   70.775436
H   75.003159   99.929764    9.752274
H    0.858962   33.838791   57.931034
H    7.183289   30.363070   96.672409
H   96.027534   19.191715   94.475426
H   26.741634   48.567448   88.532425
H   81.140160   45.468124   71.523232
H    6.232965   11.063742   25.014969
H   91.733444   78.597107   81.475456
H   68.687416   43.126617   90.928368
H   96.991623   65.163750   54.090034
H   34.223824    9.041023   28.228865
H   34.443958   61.942699   88.259102
H   30.680923   41.463631   89.649857
H   54.226498   77.525459   22.044823
H   26.598392   65.407677   83.572426
H   29.405788   84.067352   18.047155
H   57.699631   96.357330   75.914024
H   64.715782   80.486099   86.077385
H   96.607025   22.961018   17.571621
H   46.310055   79.055336   50.070766
H   96.663788   40.708469    4.465971
H   50.159271   52.005199   23.438078
H   19.201885   63.999996   20.636580
H   56.792721   97.480988   81.999329
H   54.824203   11.374689   48.988251
H   33.877563   81.639702   90.346046
H   46.484882   12.785843   52.308578
H   86.949142   43.793671   23.243456
H   14.508944   79.493469   27.082325
H   47.103592   45.449471   69.293770
H   51.427650   27.420115   84.658936
H    5.943634    2.105158   55.130829
H   24.756798    3.481904   98.891243
H   87.839310   40.632393   58.193504
H   72.177498   57.674591   50.387768
H    4.798004   89.810822   81.632851
H   85.086914   17.524626   41.429668
H   47.050682   35.663956   46.779099
H   47.148586   30.812395   53.657669
H   23.816349   95.768738   57.977264
H   25.825897   69.028969   18.816111
H   92.317474   49.419243   32.377911
H   92.149269   91.115112   45.710522
H   95.537819   84.529305   40.149139
H   51.015617   37.429520   38.444340
H   31.373154   46.597912   80.816193
H    7.208915   20.847065   43.231880
H   56.872467   22.417381   82.737518
H   60.581177   27.923273    7.552471
H   11.966122   21.963608   14.097563
H   40.037483   42.913090   52.987705
H   60.033897   42.967464   28.843243
H   67.185493   67.719284   66.572166
H   97.749779    2.477676   61.964783
H   36.925407   24.398174   28.298441
H   13.333953   68.956612   66.821297
H    4.898323   31.847239   72.529716
H   85.234184    8.773156   57.597672
H   44.956017   72.915443   74.102783
H   32.216785   60.521805   57.925827
H   69.602585   28.739883   86.703247
H   23.119305   73.213249   30.241596
H   29.288561   82.523277   96.280861
H   15.471991   11.749417   92.790649
H   61.428471   42.176201   47.107063
H   89.808014    1.385620   78.617157
H   29.745047    8.757941   42.827660
H   11.834505   41.106674   22.427660
H   20.959873   24.983892   85.669426
H    1.747621   14.366147    0.914470
H   85.183060   61.694908   43.898079
H   12.777389    4.239816   55.377960
H   75.675743   36.621719   67.024796
H   19.140993   77.004486   79.850426
H   36.432793   79.613243   14.635693
H   55.006996   24.226234   42.693165
