100
TIME:    7.422, STEP:  7422
H   15.402851   41.387733   92.350967
H   95.499771    7.050221   46.086529
H    7.348309    7.872660   36.217701
H   82.722366   26.864666   33.337284
H   28.691462   67.663368   64.464294
H   12.921548   93.167290   13.771317
H   63.981312   62.508007   70.863220
H   36.531731   30.699245   26.730247
H   71.180946   72.698318   32.898060
H   72.038490   22.953920   98.319069
H    9.878662   64.882858   24.825232
H   72.565414   95.717316   64.622963
H   70.473396   12.742149   87.528648
H   87.588463   82.199196   22.057308
H   70.753609    7.063194   93.979034
H    3.100116   62.573730   16.949991
H   27.274117   72.877563   49.042294
H   59.783848   33.684357   42.241646
H   60.861675   89.714645   54.380329
H   92.556747   48.197124   21.656839
H   23.844711   17.333427   55.795269
H   73.934708   53.936798   87.226440
H   86.647804   34.259575   19.998140
H   29.446783   25.616915   55.852295
H   64.130928   97.557510   91.353065
H   12.611965    7.301941   92.439217
H   22.071199   33.952812   47.233593
H    6.295398    2.873569   12.103580
H   72.555016   22.473841    6.330744
H   85.586014    7.145061   73.416405
H    8.156947   87.600739   22.173988
H   34.386776   47.447933   12.172310
H   93.152351   25.453215   66.429329
H   91.698494   93.540779   59.074036
H   96.242439   97.720512   76.612839
H   17.819519   66.751678   96.092232
H   91.665482   32.726685   93.290009
H   57.225838   23.125393   46.190651
H   31.787205   19.703806   25.065170
H   64.122993   17.360289   21.981642
H   28.010035   10.851140   17.203581
H   74.728172   70.708527   58.864925
H   75.160980    8.010265   37.572285
H    5.424798   37.220482    6.419707
H   12.852650   39.057484   91.230293
H   82.320152    4.479399   13.313948
H   99.719040   28.472233   96.707573
H   56.640621   71.814178   27.808819
H   81.982307   17.760403   48.408348
H   81.566162   43.701023   64.587288
H   42.991962   53.097488   31.664581
H   65.837784   75.032791   86.828583
H   62.828739   65.044006   71.811623
H    4.818230   86.106766   59.328506
H   49.844467    9.033113   63.478596
H    2.839851    4.726500   39.964401
H   66.773102   75.387672   61.881416
H   73.398361   75.970955   22.381739
H   75.631645   52.373837   41.698769
H   69.242241   98.266846   52.511253
H   27.886389   33.414581   35.718300
H   35.496651   58.859146   59.533821
H   77.940773    0.818661   24.521637
H   52.695942   82.193848   25.631611
H   26.913971   68.062500   86.747246
H   45.402161   73.303764   85.030411
H   92.087158    4.961252   25.396799
H   67.677422   42.009941   21.017120
H   26.813278   16.488739   94.737122
H   80.761726   21.432871   86.101654
H   86.349907   90.408966   73.119453
H   62.082783    5.159852    0.076541
H   23.063089   51.189182   71.451233
H   66.818016   79.680542   62.163452
H   19.996344   39.243687   64.042725
H    1.115294   83.253807   96.523445
H   40.859089   83.407661   22.371393
H   80.679382   65.415260   24.328539
H   17.425901   31.717968    0.485844
H   35.542648    4.707572   81.509315
H   56.112831    6.066354   23.585693
H   98.238075   92.603439   66.078712
H   87.333122   31.240149   36.777100
H   60.769985   47.275997   85.532188
H   90.940048   84.630333   28.272753
H   80.474411   81.677338   57.189438
H   62.853382   63.712608   77.452919
H   75.395195   11.157698   18.623322
H    9.710507   80.927391   67.488411
H   10.133878    3.913097   89.535706
H   27.761555   74.197273   90.200851
H   27.451738   53.684525   74.943230
H   61.217991   50.217129   92.959236
H   64.572945   63.456993   27.252832
H   28.271095   84.912033   86.636566
H    6.948397    2.645889   84.092842
H   73.478966   93.613251   10.342591
H   23.951143   53.698849   29.885515
H   55.146049   68.852196   23.366802
H    0.221257   88.173447   82.755615
