100
TIME:    5.080, STEP:  5080
H   73.782875   56.159431   94.495132
H   60.177864   80.141937   98.415405
H   67.076599   39.379089   63.716618
H   82.329269   23.354721   61.712456
H   49.669952   79.941910   27.964451
H   49.246899   95.704552   81.835869
H   86.727333    4.362654   87.715622
H   20.608315   28.086590   41.765491
H   28.751839   97.871994   80.319481
H   36.016350   89.324638    6.615479
H   27.725800   70.647415   50.417751
H   61.953712   78.324883   31.328566
H   19.901688   54.392891   20.247559
H    3.550020   89.417885   43.830856
H   42.291878   16.261477    6.580549
H   97.267334   67.413651   11.356518
H   15.603880   17.973881   35.840790
H    9.700290   47.641750   23.426676
H   24.391136   91.464691   30.996172
H   55.650917   97.936073   62.202644
H   62.822319   50.487885   19.364716
H   49.404892   50.827759   86.669373
H   17.918709   53.306908   87.004898
H   47.053066   97.599823   29.787750
H   47.893707   83.290268   74.056801
H   23.388815   76.480835   12.718107
H   24.024424   31.306885    0.759935
H    3.906692   93.556946   34.690361
H   21.631096    9.989542   17.037868
H   95.783676   65.109673   87.234322
H   15.984683   77.588547    7.465508
H   86.511604   12.158608   28.982979
H   28.185284   96.805824   55.443474
H   92.743103    8.171062   57.738609
H   54.496536   74.910995   34.064575
H   14.233479   83.315849    3.455677
H   67.036255   18.495159    8.749425
H   54.024891   65.989998   80.922737
H   30.643993   70.732780   52.022369
H   84.714012   36.610611   37.718113
H   88.070053   30.490370   62.028301
H   75.059013   39.851028   41.460651
H   54.997852   93.963196   68.406593
H   54.967403   97.910400   77.431198
H   16.003695   31.460823   90.819481
H   12.548252   59.810047    3.798579
H   81.422165    1.104883   74.229576
H   56.510715   47.692322   82.899559
H   13.525146   11.724758   41.831116
H   32.420559    8.052198   28.362389
H   43.157047   79.202103    6.978249
H   52.010628   92.353210   40.569847
H   14.245694   51.464294    7.830030
H   59.047737   24.318153   55.982506
H   36.318237    3.791385   43.555729
H   99.922440    7.190056   19.691620
H   18.302399   42.965599   39.137794
H   47.787979   97.144020   82.705673
H   90.925896   53.411713   21.488277
H   23.791576   18.253376   19.123299
H   80.150757   42.328167   18.319633
H   18.616941   80.658157   65.502319
H   18.941130   60.633102   85.119598
H   91.873940   69.436066   89.216888
H   33.955864   55.113682   68.647301
H   89.273674   89.731316   46.552574
H   79.990387   23.991924   12.324387
H   29.455559    8.067470    9.055976
H   10.087597   84.769936   41.624352
H   33.307175    3.650743   91.036102
H   60.719780   49.757050    1.208323
H   55.097168   82.929535   28.555218
H   75.765686   67.027077   31.497154
H   18.378902   27.906128    1.317764
H    7.099282   35.882320   86.496185
H   45.753914   33.152756   54.109081
H   28.185682   86.245796   80.890846
H   70.647964   18.551243   94.988350
H    5.118632   38.597164   74.362511
H   50.392426   32.285404   83.274750
H   10.279604   81.836594   83.608894
H   22.483780   77.403824   61.991112
H   39.196465   92.074890   13.736760
H   99.646271   46.865891   99.438202
H    4.974862   31.127892   55.303352
H   34.375492   95.650612   94.553696
H    6.436452   33.995544   65.777527
H   37.725540   98.577972   42.913673
H   61.108017   11.326262   86.642952
H   17.198122    0.268778    5.816172
H   31.917229   47.736462   40.742107
H   54.167454   77.543991   30.322348
H   11.091212   79.947273   11.848774
H   38.229309   21.371817   69.335762
H   68.760902   94.693596   32.818027
H   13.508803   95.128571    5.060257
H   59.375755   59.211437   45.033676
H   25.512182   59.490845   74.743172
H   66.713623   58.748180   19.533447
H   54.748203   48.271656    8.367640
