100
TIME:    5.344, STEP:  5344
H   55.929359   31.949230   94.253433
H   52.886604   94.446503   15.061423
H   71.616516   58.372620   60.616825
H   82.373581   12.477249   47.240715
H   47.305328    1.102666   20.807133
H   45.152111   95.418541    7.980122
H   72.890053   22.189709    8.360841
H   99.858429   50.925152   17.525074
H   22.262215   72.489548   63.702621
H   28.802076   93.115288   16.954130
H    3.169163   81.270096   24.988701
H   51.876869   91.557915   12.537458
H    3.055259   38.428658   94.015068
H   90.478279   88.604164   63.922104
H   45.502449   92.680130   93.890656
H   86.652710   44.323318   89.442108
H   94.374336   35.434635   59.873749
H   15.345477   34.797451   14.275339
H   28.503044    2.538953   44.903950
H   48.538918   92.328651   80.177010
H   47.156181   24.205109   12.199341
H   74.714828   51.178223   64.187317
H   14.393699   51.159813   79.451797
H   22.522999    0.758028   10.180758
H   38.451324   62.354927   76.006508
H   22.185354   68.677979   87.892151
H    1.259365   20.332733    5.998514
H   81.630348    5.879539   43.417717
H   27.371452   33.941135    4.559070
H    5.906504   58.575737    8.221554
H   26.374729    1.262907   86.578667
H    3.180739    4.864939    4.543195
H   46.781818   77.490028   79.226677
H    3.897706   83.977074   46.616417
H   47.934402   54.954697   50.139587
H   37.182041    3.993361    2.625340
H   92.358276    8.826183   29.551495
H   43.114185   61.158855   99.553719
H   19.499645   64.980339   26.438726
H   59.847530   11.895588   58.490147
H   70.027206   39.548050   68.248024
H   51.332207   51.700333   53.861835
H   57.271839   95.546326   87.476662
H   38.110897    2.341619    3.244505
H   93.103401   21.045601   13.410895
H    9.141737   64.845444    4.871756
H   83.484665   15.462724   76.763390
H   56.524815   50.411438   99.234398
H   21.241394   89.860046   31.299141
H   37.957485   12.070448    9.898582
H   43.136906   53.714920    9.761315
H   64.840828   67.856995   23.237999
H   19.722034   52.995056   92.497704
H   52.934761   20.009865   67.632408
H   15.297661   26.927301   45.801517
H    0.251645    6.912354   10.704437
H   35.038055   35.348045   64.246315
H   28.129974   72.212746   75.905869
H   11.747232   64.566307    1.220869
H    6.370827   38.546040   11.614510
H   96.803833   30.051701   97.736320
H    9.248075   78.200882   53.556587
H   36.864407   42.618454   67.016327
H   10.002044   70.874176   82.050507
H   44.435539   34.027439   93.232140
H   73.055656   76.607048   62.162315
H   58.809479   33.118969   25.070999
H   11.219220   23.166620   21.676702
H   23.245878   65.800575   25.065941
H   38.654770   16.929482   90.480194
H   52.336845   31.794769   98.041756
H   33.330139   74.167938   47.884933
H   58.552673   53.968811   24.727562
H   12.568050   11.197662   85.631554
H   19.827433   36.258968    6.509129
H   51.995796   50.073715   36.346203
H   52.156040   63.364880   85.559669
H   83.051163    1.288805    9.567935
H   17.778004   37.821712   77.307213
H   37.446739   17.905304   60.530853
H   15.445421   84.567795   99.387825
H   42.293236   79.127502   39.915482
H   55.895866   96.489929   38.879475
H   17.808981   69.456711   75.324677
H   92.120232   14.613835   29.711433
H   28.298771    5.347335   12.886909
H   24.068411   14.800598   78.366028
H   41.975212   77.441833   40.168747
H   66.586533   96.627342   84.483772
H   93.856964   89.408371   15.253075
H   42.721184   61.990673   46.317303
H   73.700783   97.399582   35.351707
H   28.014040   87.866951   32.264301
H   63.744049   37.387402   87.136909
H   64.196815   71.047356   38.884678
H   35.314102   84.703278   91.424210
H   38.420433   74.361946   29.850937
H   26.480993   61.738647   70.517464
H   54.137207   59.886181   97.420235
H   71.146362   41.498035   82.936356
