100
TIME:    5.702, STEP:  5702
H   31.718927   99.119804   93.925674
H   42.999214   13.845960   37.634785
H   77.772919   84.128998   56.413319
H   82.433670   97.726959   27.616463
H   44.098755   29.797869   11.101030
H   39.599331   95.030693   43.434658
H   54.127300   46.364651   36.356907
H   71.720337   81.897202   84.655205
H   13.461891   38.069412   41.166473
H   19.019892   98.255638   30.973993
H   69.868881   95.675095   90.504021
H   38.212059    9.502357   87.054802
H   80.210495   16.779228   58.442314
H   72.751991   87.500710   91.164330
H   49.856178   60.701797   76.683319
H   72.258636   13.011363   59.725311
H   65.586189   59.112476   92.463898
H   23.001318   17.378654    1.865571
H   34.078533   17.558374   63.763737
H   38.894615   84.724648    4.551282
H   25.911949   88.565002    2.482658
H    9.036636   51.653473   33.700287
H    9.613200   48.248222   69.209335
H   89.260002    5.040743   83.593369
H   25.647560   33.962822   78.650429
H   20.553389   58.095306   54.226654
H   70.389893    5.450693   13.102098
H   51.423054   22.589775   55.252541
H   35.155724   66.422028   87.636078
H   19.633270   49.715324   36.680801
H   40.465080   33.365147   58.254845
H   25.784855   94.973267   71.401360
H   71.999260   51.296638   11.478147
H   19.024593   51.168419   31.534094
H   39.035751   27.892538   71.939270
H   68.302734   32.034248    1.499484
H   26.695332   95.714966   57.760601
H   28.318607   54.606411   24.816105
H    4.387677   57.179680   91.746437
H   26.129107   78.381523   86.656090
H   45.560013   51.830811   76.682350
H   19.680645   63.963600   71.055290
H   60.355503   97.693146   13.335877
H   15.252430    8.350851   38.247330
H   62.048428    6.921489   44.046246
H    4.521961   71.673752    6.326186
H   86.281540   34.932755   80.199394
H   56.543934   54.098724   21.385336
H   31.705093   60.209152   17.018417
H   45.465893   17.519438   84.858810
H   43.110065   19.152246   13.535321
H   82.239357   34.636227   99.735085
H   27.148502   55.070862   71.706871
H   44.645195   14.167779   83.430382
H   86.792931   58.301792   48.846943
H    0.697565    6.535772   98.517258
H   57.732620   25.018181   98.294991
H    1.473254   38.404427   66.684921
H   39.981026   79.692375   73.738274
H   82.745438   66.063919    1.432141
H   19.387104   13.403027   69.822197
H   96.542793   74.868668   37.357109
H   61.170452   18.188726   42.467194
H   34.585464   72.824341   72.332458
H   58.646614    5.434455   26.571756
H   51.063042   58.809746   83.330070
H   30.086792   45.494595   42.355362
H   86.489510   43.641209   38.791172
H   41.089611   40.076973    2.612129
H   45.906433   34.935951   89.726349
H   40.969078    7.436588   93.748116
H    3.811659   62.286682   74.096390
H   35.210785   36.261642   15.547585
H    4.688183   88.539391   64.360008
H   37.087627   36.769726   33.648819
H   60.460167   73.018486   12.257650
H   84.659782   32.334316   91.890877
H   99.870651   77.881279   29.339762
H   34.944370   36.770153   81.300407
H   19.893402   98.404213   29.688671
H   22.451212   88.271469   20.784166
H   69.161789   81.449127    9.968387
H   78.539513    2.476771   72.973862
H   42.438110    0.091234   42.627064
H   74.688927   92.221077   95.007538
H   20.058369   18.497292   37.747498
H   47.978416   88.770927   95.436798
H   47.732841   48.794262   36.456879
H   74.015732   76.694145   81.555794
H   62.206234   74.681076   28.050650
H   57.372002   81.322693   53.877605
H    0.189156   24.324045   42.171822
H   50.962616   98.606514   59.948994
H   98.344429   59.106884   11.276137
H   58.007637   38.979488   47.111423
H   64.883408   70.565948   72.933151
H   10.004660   94.906960    9.261998
H   27.271151   68.591873   64.411522
H   37.082825   61.429379   67.435768
H   93.384796   32.312595   48.449436
