100
TIME:    9.531, STEP:  9531
H   72.779449   47.983376   90.420120
H   37.252548   21.334484   79.065605
H   43.600002   59.602119   11.460524
H   83.076355   39.974052   17.735590
H    9.793295   36.708664    7.281902
H   80.221069   90.882454   22.632389
H   53.449268    4.915874   35.789791
H   70.768494   13.155085   33.089005
H   19.337700   69.925140    0.144279
H   14.432428   53.236042   80.897926
H   13.704620   49.741470   21.673086
H   92.068474    1.430535   14.502151
H   35.989502   85.089760   77.942688
H   83.163666   75.698677   82.553490
H   96.369514   18.676918   92.555199
H   18.302181   78.112778   41.884827
H   57.680702   12.373087   41.032883
H    4.881796   31.060310   69.133377
H   93.716721   78.191086   65.490036
H   35.733486    3.412424   65.247398
H   98.693176    7.376289   98.555740
H   76.126602   56.736526    7.625554
H   58.489616   17.114202   59.657562
H   33.490276   50.846649   99.218750
H   88.701767   30.304558    6.925182
H    2.665707   45.129623   93.972191
H   40.210213   46.285213   89.075058
H   28.343851    1.314569   81.817070
H   18.413769   13.819052    6.637084
H   66.453896   54.947281   41.075386
H   91.160088   76.718506   55.316711
H   67.550491   89.180801   16.931633
H   41.708565   71.149155   56.424706
H   80.809265    0.263508   70.225639
H   43.755577   38.039528    4.925751
H    1.151380   31.941931   89.462990
H   93.946106   55.489510   59.470844
H   70.056404   84.532555   95.018059
H   42.766140   73.753075   20.687611
H   65.478821   19.922302   87.914017
H   83.875427   83.213913   66.890709
H   96.992973   78.978989   66.533775
H   93.310944   20.662819   89.907005
H   70.763954   72.626808   12.624591
H   29.912588   55.860981   71.707474
H   55.100471   44.700054   21.882082
H   16.206776   43.168644   16.959169
H   56.769344   93.536209   58.301441
H   43.629555   43.092419   64.280853
H   25.838980   75.807274   17.125053
H   44.351780   49.600853   51.589752
H   68.335632   79.333405   48.385353
H    6.564598   77.272705   49.327629
H   55.972038   51.699753   52.392586
H   81.922249   93.855820   81.403763
H    5.466608    2.508037   68.169052
H    0.476977   14.533709   62.464867
H   16.358164   76.801628   68.058372
H   41.969265   41.489311   79.790871
H   30.071209   60.373646   92.526283
H   60.926968   35.335758   71.289467
H   60.644096   39.228867   64.109810
H   21.119854   56.904808   79.901184
H   97.516174   93.682388   68.375641
H   10.623889   99.617073   83.148949
H   15.845274   68.459373    9.731755
H   22.878700   77.872345   27.219360
H   21.994568   62.625557   21.839523
H   31.925814   64.949463   62.466579
H   23.594635   27.362001   81.628525
H   19.372486   46.908901   47.825356
H   88.412498   35.134178   54.663357
H   85.553085   46.867290   17.373508
H   20.396259   46.202686   36.853401
H   21.588434   42.349133   23.948294
H   50.978439   18.420063   54.613052
H   32.401314    0.867190   59.779488
H   79.755745   27.519783   40.812004
H   18.560270   25.523167   24.023470
H   32.115593   89.820107   99.817177
H   97.400780   27.884928   49.638313
H   56.493584    6.286736   89.640373
H   20.729914   66.510292   37.627544
H    5.867139   27.747810   92.908195
H   88.251160   52.697838   23.830294
H   31.935154   59.145454    3.644687
H    3.708805   10.370679   78.017998
H    9.313023   42.396828   96.758804
H   53.480473   63.501381   50.239510
H   23.670172   17.144279   64.924393
H   14.071037   88.076569   34.739403
H   83.496384   12.301929   15.131280
H   96.409103   13.491438   56.051445
H   66.893349   91.292770   71.769890
H   91.804443   96.000069   35.096840
H   81.143097   19.363405   75.160294
H    6.076684   14.643106   89.051270
H   19.880274   58.052937   87.541283
H   54.678123   77.959358   46.716969
H   31.218521   34.054272   79.588760
