200
TIME:    0.728, STEP:   728
H   24.466322   60.855427   23.684074
H   32.313782   40.002403    9.708346
H    7.909649   90.497833   69.384819
H   34.292160   82.677620   31.738617
H   10.028922   96.097534   46.642235
H   73.743103   39.569908   51.105293
H   10.429473   54.957878   59.096981
H   13.824433    9.958526    7.750619
H    7.246349   80.190247   35.814663
H   93.682693   68.063194   76.823799
H   29.202967    5.018731    8.382927
H   32.795746   55.048264   35.994469
H   23.151531    3.203882   41.290947
H   81.338448   55.265835   65.781181
H   96.061295   75.701241   41.777878
H   15.076145    5.859524   43.795815
H    7.163758   30.573952   91.738564
H   24.974457    6.626962   34.832409
H   81.262054   12.034769   49.667641
H   91.608803   73.003014   18.553425
H   63.941582    1.118756    3.483249
H   79.164894   67.467323   51.769089
H   80.391869   58.993301   37.426918
H   18.944611   92.508339   90.055870
H   24.457443   32.330605   27.997204
H   18.257132   83.993668   90.839058
H    8.346171   68.588631   68.702835
H    5.710007   90.260475    2.015342
H   31.622211   41.696724   35.480850
H   70.997238   33.837368   81.745163
H   12.724369   71.837196   16.791447
H   23.051937   74.943832    5.618002
H   15.332100   19.486048   79.139908
H   80.275551   64.110329   46.820023
H   24.569563   69.636459   30.506739
H   17.120613   38.795334   85.072365
H    0.270925   63.896225   89.618507
H    8.776654   57.378635   93.226288
H   35.009277   28.926201   55.279015
H   85.402756   37.681713   44.633881
H   80.649513   82.427170   17.722145
H   37.629105   32.873825   25.360710
H   67.915237   76.571541   68.448830
H   36.194107   86.935432   36.201283
H   45.450928   91.184006   61.974388
H   34.192451    1.138364   47.995220
H   89.170319    2.303797    6.878270
H   78.235268   65.543159   30.104202
H    5.953061   10.233387   61.518169
H   44.653988   20.003744   85.067261
H   66.599472   64.319420    8.529038
H    2.483639   44.097393   74.033546
H   65.338829   80.466026   14.305761
H   15.143614   92.481918   88.929787
H   56.542892   65.531967   74.990944
H   99.049980   60.327454   94.627960
H    4.037795   18.592140   44.419849
H   72.740219   69.923813   96.495171
H   17.883875   83.904465   18.929203
H   31.816578   93.248940   57.973053
H   48.839043    5.855394   27.978458
H   98.707268   17.580919   52.807289
H   84.891586   35.315430   68.421173
H   35.950127   65.848564   14.563194
H   79.193039   83.354095   37.884998
H   19.596548   35.520134   41.635025
H   67.946632   12.868281   95.917397
H   94.608635   92.559425   96.933113
H   33.880615   12.447867   55.803108
H   42.427853   50.135509   50.956532
H   58.251083   85.032501   86.334686
H   18.425365   10.994851   41.348843
H   92.982071   34.099743   83.154877
H   23.763884   98.238152   74.779701
H   85.087173    8.771163   44.666977
H   65.648537    1.848051   59.688599
H   93.364960   48.117279   65.242867
H    8.480499   14.856153   31.280403
H   15.240973   51.434589   24.128683
H   60.922100   87.945328   71.118561
H   64.079948   21.854353   93.888641
H   48.094570   59.813908   72.771049
H    9.095790   19.019251   76.001457
H    8.760416   77.816994    9.756425
H   21.530441    4.484248   43.952576
H   38.415421   68.699982   17.624222
H   57.726830    3.800993    2.890117
H   71.273262    0.381533   29.848484
H   80.622635   73.244980   78.928223
H   20.999886    7.921134   49.496731
H   20.786514   39.105534   78.583893
H   80.656197   92.817078    9.015873
H   70.442368   11.358360   81.831329
H   38.145084   76.901360   82.504265
H   37.489983   50.325066   88.264427
H   49.062843   38.619972    6.117029
H   85.925346   97.399925   19.346092
H   93.479729   36.021332   53.213993
H   25.960167   64.889542   54.610649
H   75.689476    5.856812   27.369547
H   31.639067   93.919067   91.919044
H    8.718247   84.039566   63.172768
H   33.295181   19.335428   37.321987
H   45.324669   68.840485    9.541812
H   24.691843   21.059616   40.909039
H    6.742899    2.880533   21.043245
H   88.775307   36.156200   53.988113
H   61.875553   53.011101   99.871468
H   85.198357   33.929710   22.729877
H   20.043032   21.256342    7.925662
H   53.615105   91.826118    1.139194
H    5.588493   75.616882   96.069817
H   48.618301   85.937561   83.320686
H   61.571098    8.876671   62.369995
H   47.565224    2.289427    9.661845
H   94.123085   91.522041    0.949367
H   12.510833   15.314239   89.869064
H   38.295223   51.016346   24.223869
H   37.394951   76.035202   59.421482
H   83.660988   56.414608   67.547440
H   45.647835   25.002293   71.528923
H   97.233185   15.919666   62.542747
H   44.001534    1.240704   38.506084
H   96.887604   49.758263   96.494865
H   62.314201   96.869682   76.673302
H   65.600883   75.703857   16.109037
H   83.256630   51.468491   52.208206
H   64.754417   91.397362   39.124096
H   98.473152   34.819210   73.769234
H   91.398331   21.836342   74.815392
H   68.308113   67.761383   22.060574
H   62.968864   90.891464   20.835224
H   90.844246    6.336977    1.005549
H   76.991913   25.514767   55.713116
H   28.533634   92.546295   33.992386
H   49.360580    1.000548   76.492210
H   69.700638   87.808052   79.632179
H   95.380821   48.983982   75.487740
H   59.068726   51.158157   71.434669
H   43.712288   85.685692   81.897797
H   74.777145   48.717804   30.673706
H   34.772842   55.838249   57.622959
H   39.318031   65.742714   82.924225
H   35.351875    8.862900   86.211098
H   63.240231   53.582565   65.025940
H   63.820534   70.383041    6.474113
H   56.273003   94.640709   43.787724
H   29.327309   55.253471   66.025169
H   78.231171   44.417442   93.093201
H   25.018013   94.002617   71.734909
H   59.019836   69.597672   47.660145
H   54.329819   93.606438   32.859512
H   98.845978   13.591457   86.334061
H   22.809875   12.344149   63.893238
H   32.963581   66.767105   69.581474
H   77.988853   44.738926   69.075165
H   64.419418   75.518875   86.534103
H   52.984146   28.830124   21.156979
H   90.046837   99.895554   84.506905
H   58.208515   37.032440   96.968491
H   58.749496   64.583641   70.440727
H   20.691416   20.527355   31.316345
H   86.225334   13.293217   37.029140
H   29.187536   34.515629   50.320618
H   54.281639   38.647049   14.619490
H   20.321487   48.911922   59.634190
H   66.496696   89.673897   57.395008
H   24.058514   53.135536   68.192154
H    0.704023   26.583220   35.704620
H   48.742943    6.777059   84.907990
H   70.042236   11.437270   35.935120
H   29.304392   47.321129   58.956680
H   47.101807   56.484821   76.693069
H   65.216782   62.865776   85.561356
H   48.756470   91.365524   76.285683
H   15.973743   50.297218   23.756409
H   30.404530   68.166077    7.321319
H    6.055071    9.666252   71.120193
H   63.121456   10.034898   63.427448
H   63.086800   59.689842   93.269096
H   72.508331    2.677185   30.373150
H   29.070730   30.701748   87.431412
H   43.165569   89.652435   15.735123
H   62.108353   26.123348   95.143288
H   91.833694   67.168304   76.386337
H    9.476486   40.341568   86.396584
H   48.344421   96.165779   10.078070
H   66.976410   87.895454   42.602394
H   92.485756   63.349583   72.120682
H   58.487686   55.618710   71.868546
H   71.132172   14.878929   75.816597
H   43.652397   98.191040   18.408598
H   14.940024   29.133720   68.985786
H   26.578157   83.006897   43.147968
H   68.147903   32.458187   20.219986
H   76.519547   11.580902   22.880535
H   12.705070   98.865929   19.937971
H   14.727060   87.707390   33.204109
H    5.405719   12.977358   56.191994
H    2.917940   18.459354   90.968948
