100
TIME:    2.566, STEP:  2566
H   43.793854   86.706108   96.796768
H   29.892342   43.869591   39.862446
H   23.862020   58.512222   93.216103
H   81.907303   26.931620   99.511169
H   72.187622   78.433731   96.130661
H   88.228523   98.428154   32.865208
H   18.486759   34.606384   91.117393
H   18.203758   10.594145   72.593025
H   90.550758   39.583023   38.566456
H    4.719515   53.227318    8.170154
H   61.571960   69.491135   92.579468
H   57.905518   52.310928   10.278608
H   80.038597    6.460781   70.088737
H   28.027824   97.166725   52.514668
H   11.712120   40.821503   27.426550
H   98.350403   87.297272   20.041212
H   17.764835   51.690689    6.981440
H   55.979034   69.916023   10.585823
H   85.231407   85.999954   98.550568
H   23.386734   51.321316   91.037880
H   12.006546    0.763211   87.597443
H    8.385269   47.490387    0.759695
H   51.484230   73.753105   58.934219
H   80.632294   67.456848   16.499786
H   37.808342   82.666199   55.494080
H   34.893192   51.149242   48.660133
H   40.809814   35.811306   50.885868
H   16.030550   76.211922   51.591366
H   66.965927   81.899727   35.875328
H   99.385933   27.331772   87.378532
H   17.042768   52.153164    6.365206
H   27.775856   81.615593   61.716591
H   51.103794   80.741737   28.962500
H   86.520439   38.564102   63.649460
H   16.987572   64.950195   80.979698
H   95.657730   86.057426   11.819085
H   25.912128   10.563051   10.656011
H   57.931931   11.988964    3.517839
H   36.761490   25.507242   95.648117
H   21.505255   71.963570   39.921772
H   59.881985   44.228382    2.798985
H    1.003693   27.021240   23.353899
H   33.343296   78.887482   86.818260
H   15.502794   55.778267   31.624178
H   34.074345   30.649837   75.690407
H   44.982647   11.859303   93.588783
H   61.779377   64.385529   50.089714
H   56.376453   21.802698   27.347435
H   40.035782   19.933651   42.115669
H   79.701317   69.802650    4.196134
H   43.348850   21.912924   80.472336
H   29.834814   25.633186    5.607796
H   62.108749   36.887268   53.841248
H   17.271801   65.344185   45.046417
H   36.481247   83.454590   22.179152
H   96.776871    9.835207    5.274109
H   58.923687   15.506444    0.035286
H   34.986908   34.560898   47.461990
H   92.652321   47.188885   14.489634
H   89.689560   25.019110   90.627449
H   21.565966   59.239376   14.330865
H    7.841404    4.058939   79.251740
H   48.283428   32.171822   57.520676
H   19.241575   55.752899   57.476536
H   34.170589   55.902668   34.527550
H   43.711708   14.709419   97.907295
H   81.693306   37.076069   90.948196
H    3.114504   64.289490   88.872238
H   84.791313   65.409935   99.296455
H   82.370911   77.206123   96.329865
H   40.551064   20.809042   31.368896
H   62.387665   66.364532   44.492508
H   39.684082   91.382256   95.952629
H   73.721672   86.998032   50.703545
H   85.888573   32.295605   95.917709
H   86.319633   72.030266   23.270687
H   99.930695    4.142668   36.430912
H   52.535671   82.936607   56.151882
H   84.561615   45.981579   46.308823
H   73.683846   69.205566   99.858109
H   61.096813   55.828106   33.352009
H   33.853638   60.985489   72.210060
H   80.152054   50.087219   74.298737
H   26.687809   31.737520   29.054047
H   27.386906   88.379333   99.007622
H   92.233093    3.307025   19.974209
H   38.532066   16.783829   45.900146
H   97.262695   99.854431   69.060127
H    8.934017   51.301140    7.206700
H   39.469639    3.701447   15.946624
H   29.033936   11.988839   87.650955
H   68.149094   88.486626   82.416405
H   49.923252    4.520414   17.427910
H   95.240944   68.880882   99.831367
H   12.225742   19.882652   75.050957
H    5.862691   94.403328   34.911865
H   58.925247   14.937806   89.616356
H   16.286459   38.085632   14.978104
H   86.475243   47.911312   30.108574
H   98.598557   12.793459   50.543365
