200
TIME:    0.481, STEP:   481
H   16.876657   61.675167   19.460527
H   30.112328   36.396488   99.680817
H   13.086500   79.686684   57.218742
H   25.966272   79.790627   38.197605
H   12.651384   89.837357   50.193501
H   81.778442   46.273876   58.416058
H    6.850883   55.133133   54.316105
H    8.289302   99.293335   16.517853
H   97.215790   83.893211   41.840225
H    2.377579   71.523064   86.566460
H   20.593809   99.742500    0.577498
H   31.774368   48.455479   24.225384
H   17.089222   95.006157   51.414268
H   93.012680   54.223728   53.878933
H    7.986375   73.799820   42.385616
H   22.275696   16.036552   49.124126
H   95.544739   19.005720    3.731123
H   30.839369   94.752586   39.229797
H   73.043922   20.976900   46.031574
H   90.822983   76.395042   28.128368
H   60.977325   88.788765   14.799201
H   84.663750   58.026176   61.287498
H   87.788376   60.789192   43.353546
H   13.712878   90.256409   90.830383
H   13.721622   22.396669   36.810825
H   18.461596   73.031761   98.996887
H    3.562808   63.632496   58.771729
H    0.041048   80.071198    1.365410
H   21.219048   49.204414   36.927174
H   82.158897   27.220425   90.289307
H   13.046847   61.517887   16.489462
H   27.543549   69.154770   99.536560
H   21.300186   14.171317   76.122887
H   88.450340   63.840851   42.502724
H   36.423115   79.842697   32.385921
H   25.188931   44.427044   82.240021
H   93.181595   69.227364   87.764198
H   20.994223   50.989372    4.331617
H   44.150795   37.770752   49.788639
H   87.771523   38.697437   54.282318
H   80.576019   93.965721    9.523613
H   25.334887   38.053265   32.685093
H   72.362564   82.245651   59.277157
H   36.744370   74.938957   27.367626
H   37.011372   83.648048   53.060890
H   37.668339    7.566516   45.308922
H   84.515701   14.405040    1.463158
H   84.248581   65.546928   38.983780
H   96.400658   19.606548   61.340088
H   53.493050   18.889086   95.516594
H   72.475220   67.445740   18.317688
H   11.925492   39.846050   68.723137
H   58.676128   87.527100   11.079801
H   18.819780   87.269501   85.272049
H   66.997879   71.025169   82.979172
H    2.216206   66.412949   86.539856
H    4.742701   17.657448   47.069401
H   70.041672   64.181862    0.953681
H   23.095821   79.133011   12.955343
H   37.529320   94.635902   62.539101
H   49.638996   10.674431   35.195263
H   94.267479   16.995794   50.913406
H   78.086800   30.198956   76.754257
H   29.965239   65.496170    9.048321
H   75.222481   79.671860   27.784489
H   29.285973   25.924164   37.195236
H   77.172951   18.078485   90.814278
H   95.991829   91.997856   92.042938
H   25.094891    9.110017   58.929428
H   43.849678   45.830460   50.969723
H   58.359440   80.760429   79.727768
H   25.367247   17.487106   43.077835
H   85.142715   29.829556   91.425774
H   15.716774    3.667349   67.588600
H   82.079575    4.772809   56.280907
H   59.405319   10.568239   61.302639
H   94.408951   38.922054   68.736656
H   17.628889   10.358418   39.726555
H   13.362808   40.430519   29.600758
H   64.644691   89.322868   82.832367
H   53.596699   26.028904   97.555801
H   37.233482   64.256470   80.406883
H   10.059456   16.309868   83.228363
H   16.815071   69.740196    1.706322
H   30.326160    1.872316   50.952404
H   31.457014   77.342117   22.765972
H   46.656567    3.286300    2.323836
H   73.327324    9.574618   20.532183
H   73.062180   72.643837   78.038757
H   22.237034   96.849426   52.214123
H   31.140211   36.973267   79.682533
H   82.376709   90.649948    3.626412
H   58.708260   14.144064   88.866020
H   49.221001   85.775284   75.722092
H   31.231630   53.666214   77.977158
H   59.291695   33.097561   17.730331
H   82.574776    5.943470    8.708474
H    0.269457   32.183628   50.875378
H   31.557014   67.363838   53.735317
H   71.394791    1.843501   27.309244
H   20.618742   87.089783   80.288155
H   99.534050   80.302681   64.535233
H   28.175100   28.362465   33.870598
H   33.456337   68.384445   99.732719
H   25.019268   24.305599   32.901024
H   96.964035   14.973587   32.607685
H   77.074692   33.089241   55.137634
H   63.331299   43.527554    9.422532
H   78.921219   37.047550   10.786167
H   12.108512   24.700193    6.716780
H   50.365353   93.972519    0.965412
H   95.670952   69.405701   93.256317
H   52.908276   83.071297   88.693283
H   62.407799   14.201685   68.739227
H   55.807854   92.004105   18.322527
H    4.203142   98.747063   89.806526
H   22.666271   11.836231   86.989609
H   39.548389   38.858749   29.161156
H   28.014851   66.761772   71.628662
H   77.142639   51.484859   58.333004
H   43.069893   23.360928   79.622681
H    7.890420   21.770916   55.277210
H   38.046638   11.658223   31.178413
H    0.526537   58.646320    7.311435
H   69.705055    2.985019   84.842438
H   56.551708   68.946182   20.878136
H   89.396202   50.315201   61.747345
H   70.157166   89.460136   37.037998
H   95.433517   43.760033   79.398117
H   79.426353   23.007063   70.607391
H   58.337433   76.580658   12.621311
H   72.449585   88.441666   15.010358
H   91.650795   94.320023   99.167870
H   89.103340   19.182037   52.673481
H   16.331753   97.012466   45.342491
H   55.939232    1.317549   80.131104
H   69.291710   87.178642   67.336075
H   93.273994   56.696136   79.390457
H   52.612564   47.703941   71.493088
H   43.578491   97.531410   88.761002
H   62.548878   55.981457   22.694901
H   46.143677   48.333385   51.864990
H   47.258205   61.196815   91.255424
H   46.669945   17.803911   82.118050
H   51.630070   61.774315   56.949146
H   54.770412   66.127930   18.303829
H   50.431175   95.722389   45.556290
H   36.071793   64.447754   67.442284
H   71.628021   54.730152   95.548653
H   17.144266   91.305954   80.978188
H   67.725502   65.402863   49.524818
H   43.932308    0.441338   40.599934
H   87.371498   22.827198   95.004463
H   16.280691    6.674541   69.997025
H   23.169098   60.243645   65.113419
H   70.656418   44.126476   61.475452
H   61.833935   68.111061   83.609421
H   49.472454   32.793144   15.370272
H    1.351700    0.826255   93.667267
H   60.977730   47.110535   87.489655
H   56.323254   74.618393   77.008072
H   32.288845   21.807375   33.456150
H   75.593208   24.062437   37.131844
H   20.120926   27.259514   60.887730
H   56.646637   30.265909   12.192540
H   16.065905   56.771065   60.984406
H   70.749924   93.668953   54.776550
H   23.842743   41.897556   57.978382
H   97.347656   27.386471   36.287861
H   37.471043    8.641026   87.689453
H   74.760925    8.499867   35.955849
H   37.837379   56.495625   58.198185
H   42.329411   67.098770   83.642960
H   68.258301   68.773376   79.830711
H   60.236603   93.223602   87.899612
H    8.348094   48.962639   23.517960
H   32.941956   60.449642   96.989471
H    3.865921    9.430695   67.961838
H   69.438301   15.777084   66.316139
H   74.836334   57.040291   89.784729
H   77.017845   93.825714   36.115910
H   24.088688   30.400234   78.414268
H   54.539230   89.914375   10.841179
H   56.729160   25.666367   86.056419
H   88.639534   77.881462   77.403946
H    4.305678   38.257355   85.160378
H   39.743744    0.396425    4.605125
H   78.842857   77.432930   33.959316
H   99.639168   62.248116   69.297760
H   53.996075   56.962330   68.747879
H   59.333191   23.050892   77.580452
H   45.677250   91.478592   21.554705
H    9.453653   23.257502   63.326862
H   30.893101   73.149284   38.170166
H   76.624207   43.490761   21.027948
H   75.916519   10.974813   26.264555
H   11.063233   92.130867   11.601117
H   21.905483   92.616409   40.170017
H    8.699520   12.286232   67.238701
H    5.494140   26.827772   94.400551
