100
TIME:    5.271, STEP:  5271
H   60.866127   38.643715   94.320267
H   54.902748   90.491074   10.458545
H   70.361160   53.120621   61.473965
H   82.361328   15.485035   51.242371
H   47.959183   95.251404   22.786240
H   46.284382   95.497627    0.750550
H   76.716270   17.260181    2.652089
H    5.596092   44.609943   24.227917
H   24.056694   79.508179   68.297462
H   30.796778   92.067116   14.095327
H    9.959442   78.332764   32.020420
H   54.663269   87.898781   17.733484
H    7.713547   42.843010    1.268736
H   94.092857   88.829170   58.366570
H   44.614677   99.200851   97.399414
H   89.587814   50.708145   95.501678
H    0.244551   30.606472   53.228271
H   13.784497   38.349094   16.805822
H   27.366039   99.476456   41.058239
H   50.505493   93.879189   75.206825
H   51.488106   31.472694   14.180676
H   67.716248   51.081314   70.403946
H   15.368493   51.753517   81.540344
H   29.305763   99.884735   15.602487
H   41.062286   68.143982   75.467384
H   22.518129   70.835587   94.757065
H    7.554258   23.367252    4.549967
H   87.790169    2.472161   41.004471
H   25.784157   27.318132    8.009697
H    3.107445   60.382469    2.418400
H   23.501724   94.716644   92.354195
H   98.571510    6.881710   11.301140
H   41.639538   82.831139   72.650261
H    0.813195   90.667107   49.691872
H   49.748932   60.472916   45.694603
H   30.836252   98.275612    2.854941
H   85.356354   11.499802   23.799358
H   46.131161   62.494968   94.401970
H   22.581226   66.570976   33.512833
H   66.723244   18.729675   52.746365
H   75.016327   37.043465   66.528175
H   57.893028   48.423820   50.432720
H   56.643047   95.108566   82.203499
H   42.771976    1.116304   96.106857
H   99.435875   23.925568    7.163913
H   10.083738   63.453083    4.575069
H   82.914352   11.492536   76.062752
H   56.520916   49.659561   94.717567
H   19.107735   95.906250   34.211342
H   36.426441   10.959341   15.004105
H   43.142475   60.762512    8.991755
H   61.293083   74.630569   28.030518
H   18.207699   52.571777   96.737175
H   54.625092   21.201172   64.411034
H   21.110226   20.529943   45.180523
H    0.160719    6.989142   13.189529
H   30.410393   37.454414   57.303429
H   33.565567   79.106621   77.786118
H    5.990011   61.481766    6.825058
H   11.187990   32.934811   13.690804
H   92.199005   33.446445    3.428052
H   11.838709   78.880356   56.859833
H   31.908152   47.599777   72.022156
H    4.989212   70.476517   84.032120
H   41.537750   39.858105   86.434059
H   77.540184   80.236107   57.845985
H   64.666321   30.595291   21.546368
H   16.261940   18.991476   18.186880
H   19.607351   71.045891   29.644592
H   37.176079   13.257711   90.633911
H   54.654854   36.761612   98.917274
H   39.349052   76.590652   42.539925
H   63.312332   57.579491   26.599457
H   14.174839   15.817806   89.969048
H   16.307814   36.154819    0.975103
H   50.269821   45.394814   41.257908
H   45.527828   69.691841   84.268669
H   79.621490    6.062159    5.536301
H   14.277532   38.036137   76.492958
H   41.026230   21.881897   66.819885
H   14.016994   83.812576   95.024712
H   36.815483   78.651199   46.020042
H   51.278229   95.269104   31.927122
H   12.786722   63.210007   81.992432
H   95.674660   19.180191   36.787987
H   29.979076    2.665919    7.817449
H   19.192907   20.108292   74.885117
H   40.800262   83.285965   40.927490
H   65.071640    0.691903   85.080818
H    0.310874   92.411423   12.643644
H   39.733727   58.049168   44.775677
H   68.299522   91.909210   33.961014
H   23.334581   85.677040   26.619099
H   56.689217   32.958569   82.214622
H   65.458855   77.585899   37.207157
H   29.284607   87.586029   95.194733
H   44.214897   70.172600   34.049194
H   26.213102   61.117096   71.685936
H   57.614777   59.571507    3.534694
H   66.611710   43.371044   89.968353
