100
TIME:    2.205, STEP:  2205
H   68.207184   19.811478   97.127274
H   39.934196   24.295954   17.090628
H   17.656782   32.540009   97.452080
H   81.846710   41.804832   19.299221
H   75.421066   49.497990    5.918709
H   93.825081   98.819252   97.113945
H   37.406422   10.229021   62.886726
H   46.577644   79.362152    5.737564
H   99.424828   74.291595   61.291454
H   14.583723   48.043892   94.034111
H   95.151306   54.965427   27.353045
H   71.683304   34.215759   35.974236
H    3.002977   28.301979    5.970296
H   45.902657   98.279427   25.041409
H    7.320583   73.067810   44.780472
H   12.866165   18.871895   50.007584
H   46.788742   27.817177   74.113052
H   48.264488   87.471367   23.102337
H   79.607307   70.857300   79.529984
H   33.111855   58.986286   66.459297
H   33.428802   36.702862   97.396927
H   73.775848   47.011154   31.502136
H   56.304100   76.689095   69.262512
H   14.173164   63.127232   43.312035
H   50.720085   11.297897   52.830757
H   36.548473   61.904438   82.497124
H   71.939964   50.819004   43.722164
H   46.490097   59.361660   39.657368
H   59.116425   49.146645   52.940422
H   85.543266   36.266434   58.679653
H    2.840521   19.779642   34.930141
H    4.982289   91.591347   95.136192
H   25.674503    7.154339   96.440765
H   71.267616   71.647690   78.858215
H   25.962170   92.238922   58.996208
H   64.270737   57.699451   13.059857
H   91.287292   23.784643   82.210754
H   72.853127   18.596317   78.041710
H   52.000542   33.372131   30.630968
H   55.506420    5.758098   11.518583
H   84.553749   31.842676   94.293381
H   33.448364   10.818435    6.394485
H   30.233793   76.722672   60.741730
H   38.554558   49.727264   96.327438
H   65.387093   44.891865   44.799171
H   49.640018    4.973774   92.123543
H   58.956310   44.753510   46.622162
H   56.357174   18.085890    5.010826
H   29.484396   49.830616   56.517441
H   72.132744   64.310753   29.444042
H   43.376392   56.765114   76.666016
H   12.291864   59.132397   29.307751
H   54.620049   34.794067   74.807640
H   25.630833   71.232689   29.116308
H   65.221329   51.807636   19.116468
H   96.325180   10.214600   17.563400
H   36.038944   25.922905   65.701286
H   61.868011   68.652527   56.760208
H   64.179283   31.936056   42.204391
H   13.512222   97.270706    0.895097
H   98.793320   76.028267   42.476192
H   20.652618    7.419765   95.584213
H   23.796196   56.788963   82.286545
H   94.452515   53.789146   67.277855
H   19.841595   84.734528    0.908162
H   65.888618   32.655861   76.562157
H   10.657080   24.595919   73.519547
H   28.051491   43.643921   71.614349
H   66.800804   91.349098   21.938278
H   75.055725   59.049614   97.090027
H   52.014091   45.371727   35.701069
H   92.155029   78.345352   18.061068
H   63.221573    9.239140    5.208263
H   81.664818    9.842231   72.158852
H   68.481956   31.781153   68.551865
H   77.787086   48.893089   47.560574
H   67.155579   35.432037   30.046228
H   35.575237    6.540649   36.214146
H   67.248642   47.041950   42.279411
H   91.387917   88.865128   30.958382
H   54.032261   52.093395   11.776670
H    6.766203   58.627884    2.396316
H   57.313328   44.061005   39.915165
H    1.853392    0.846289   62.027466
H   44.964645   10.959398   34.002335
H    0.539956   90.047874   94.905022
H   14.421698   43.031464   28.686323
H   91.451309   28.756760   72.816872
H    1.441555   71.401375   10.159996
H   71.387558   18.554909    3.042335
H   14.260345   92.495483   80.027298
H   41.436428   61.340847   75.536385
H   26.760647   93.702682   89.499741
H   60.350307   46.982761   75.489647
H   18.468163   52.219849   66.755272
H   76.045532    8.658693   53.557877
H   87.580063   94.221092   10.377850
H   14.961144   35.011932   20.754940
H    3.672392   46.355183   60.347061
H   76.179276   22.065750   85.312531
