100
TIME:    6.259, STEP:  6259
H   94.052078   48.039940   93.415726
H   27.616367   44.030598   72.756447
H   87.351456   24.201210   49.873226
H   82.527161   74.779266   97.085083
H   39.109756   74.443878   95.998886
H   30.959949   94.427254   98.595695
H   24.936470   83.975365   79.915031
H   27.941238   30.084995   33.513309
H   99.769707   84.515991    6.104518
H    3.804296    6.253782   52.782902
H   18.058090   18.086737   36.851067
H   16.951447   37.421803   47.406288
H   44.667068   83.096046    3.095879
H   45.172264   85.783882   33.552906
H   56.627815   10.948090   49.906574
H   49.863388   64.293983   13.489167
H   20.795692   95.955711   43.169807
H   34.912868   90.276260   82.555702
H   42.751911   40.926773   93.111252
H   23.889374   72.893837   42.474419
H   92.858795   33.114208   87.363045
H   62.436768   52.392899   86.266632
H    2.175736   43.718178   53.273438
H   37.506527   11.704073   42.225788
H    5.727139   89.789490   82.764015
H   18.014269   41.628212    1.849507
H   22.357964   82.298355   24.154959
H    4.426044   48.588661   73.663712
H   47.267006   16.957554   61.305725
H   40.990391   35.929710   80.961349
H   62.388626   83.312019   14.186775
H   60.954319   79.581314   19.837044
H   11.232224   10.544355   61.657104
H   42.559898    0.122816    8.070078
H   25.187057   85.775948    5.852642
H   16.721903   75.660362   99.747902
H   80.118202   75.317017    1.650151
H    5.297724   44.411686   64.120415
H   80.878387   45.042900   37.768364
H   73.664963   26.236423   30.479166
H    7.493702   70.942680   89.805031
H   72.739517   66.147812   99.493431
H   65.152252    1.033683   53.567497
H   79.684967   17.699911   92.707848
H   13.734230   84.943741   91.709457
H   97.333244   82.297684    8.589083
H   90.633102   65.223709   85.545357
H   56.573681   59.835648   55.849369
H   47.985207   14.080040   94.799301
H   57.150196   25.997911   45.902924
H   43.071819   65.377457   19.406551
H    9.308712   82.951172   63.171761
H   38.703091   58.300537   39.355885
H   31.747742    5.079005    8.009231
H   42.444389    7.113348   53.585217
H    1.391336    5.949862   79.555664
H   93.045815    8.945830   51.270470
H   59.997467   85.801994   52.338364
H   83.910782    3.226945   30.979073
H   45.988716    8.874913   85.589745
H   54.523335   87.499283   26.395245
H   76.773781   69.684189   12.153056
H   98.983467   80.179970    4.272034
H   72.834885   75.858536   57.210567
H   80.753922   60.949306   78.442268
H   16.846424   31.119530   16.264769
H   85.396927   64.749573   69.246658
H   48.013878   75.496010   65.418991
H   68.851326    0.054517   67.680389
H   57.189049   62.953384   88.553467
H   23.281307   69.538696   87.067787
H   57.883091   43.801041   14.876090
H   98.892151    8.711662    1.264822
H   92.425453   53.286228   31.264383
H   63.940678   37.564396   75.872574
H   73.626488    8.715530   74.777374
H   35.233974   84.068382    1.745805
H   26.039532   41.459808   60.102417
H   61.652935   35.134068   87.513283
H   92.578201   68.062263   81.702782
H   33.351364   94.033890   54.074604
H   10.967838   85.061401   63.375477
H   13.770013   11.791043   26.018806
H   80.758369   47.755516   91.754478
H   47.568153   57.382271   41.012466
H    7.237440   38.957581   76.427109
H   85.179176   48.272499   21.996756
H   56.690941    4.221819   30.681709
H   85.574570   45.680763   77.000252
H   12.958692   51.765110   47.960320
H   80.166710   11.400257   65.640427
H   41.401516   66.215942   52.783005
H   86.667526   15.319676    3.022655
H   52.174923   92.899483   48.833725
H   48.378105   89.086258   59.911137
H   10.889373   48.570160   44.163544
H   65.792351   26.870993   77.228409
H   26.196009   96.154602   53.230743
H   10.548711   63.830387   20.780022
H   27.981844   18.019203   94.790749
