100
TIME:    8.304, STEP:  8304
H   55.756340   60.504723   91.543472
H   71.140335   54.846905    1.698308
H   22.509066   71.327042   25.863571
H   82.870407   90.524895   84.992378
H   20.788103   38.359470   40.548981
H   99.243164   92.211754    1.118584
H   17.757908   22.063402   39.836781
H   67.208267    7.004088   45.748535
H   49.499702   87.896851   77.380630
H   47.948219   35.618137   32.855904
H   27.837173    0.372258   39.866203
H   38.901306   39.927074    1.841753
H   14.231308   59.355064   99.878799
H   43.916435   79.480629   89.177818
H   81.466377   28.278610   51.560600
H   67.637360   85.430687   43.736603
H   56.348763   31.215839   29.334234
H   78.640366   90.766472   11.669226
H   74.601013   26.716061    0.850167
H   68.789474   29.469511   81.707558
H   71.505592   29.527874   31.859747
H   58.492908   55.107666   12.115936
H   74.871834   27.088633   94.762314
H   47.496902   36.168182   90.346573
H   32.584785   27.611473   97.866859
H    8.453365   81.301559    9.438534
H   46.016029   97.288651   64.735764
H   31.874598   44.042347   41.258812
H   91.733025    2.496140   64.637474
H   19.405418   85.315231   43.532440
H   42.870579   66.690529   52.393028
H   90.077019   23.081768   30.521172
H   55.280323   60.922127   45.886856
H   28.966293   12.710587   21.916716
H   74.292030   30.940666   30.274275
H   94.490555   35.834839   93.319832
H   76.260155    0.423635   62.788052
H   20.773125    6.983160    8.432342
H   94.556511    0.488773   39.592735
H   81.049118   34.790497   91.375977
H   67.731979   41.112022   37.983120
H    0.397898   74.167297    3.895134
H   82.751434   13.301041    1.280764
H   49.104816   52.026581   92.656525
H   36.345413    4.261081   66.706963
H   70.934471   21.299026   16.897207
H    6.613695   76.437691    5.176089
H   56.694454   80.898499   82.382027
H    7.766533   44.712357   13.223412
H    0.084693   57.125629    2.916208
H   42.931400   67.945869   40.964111
H    8.702814   93.189148   28.931004
H   81.118935   70.158142   20.588766
H   84.390198   71.719894   98.249771
H   79.617867   86.327789   70.975311
H    3.938381    3.798721    9.939041
H   22.689865   49.938118   45.767006
H    7.723125   92.676613   99.662010
H   45.193966   89.641838   73.988708
H   11.041284   66.062332   27.425072
H   83.523056   92.397339   66.949745
H    4.192757   50.649612   19.624420
H   37.819080   40.633331   64.040253
H   13.260178   86.998444    1.683438
H   61.925125   97.616852   68.884262
H   91.221199   29.456779   37.181644
H   21.323160   35.453381   67.979233
H    6.751659   92.451469   63.181824
H   70.773621   53.113853   39.420715
H   98.674660   65.730972   84.230957
H   58.341923   30.396667   62.541267
H   89.453217   75.874413   64.724655
H   65.554825    7.562381   48.836727
H   47.403515   23.860062    9.758448
H   62.483093   40.542408   30.916403
H   21.967875   39.781410   37.175598
H   20.963234    7.067447   38.014542
H   22.115061    7.745846   73.041931
H   59.718460   29.127254   10.328905
H   92.289818   56.661369    5.524230
H   73.379768   15.191049   76.301666
H   64.420578   98.323196   92.291573
H   43.121132   45.990391   20.773815
H   21.451694   22.750540    4.975826
H   47.994766   29.455715   42.773277
H   60.178097   14.072814   18.438354
H   21.760241   99.583702   19.510078
H   89.580193   40.579857    9.478439
H   28.017094   31.818243   60.274788
H   32.153378   67.628922   21.065493
H   63.856586   21.823483    8.827415
H   92.710808   20.019558   91.752586
H   17.755741   76.679558   61.165649
H   49.814766   16.966908   86.724785
H   13.019531    5.907165    6.904116
H   79.797928   67.816101   38.536659
H    3.470209   44.228142   59.618095
H   22.248674   97.342369   12.177820
H   13.129502   72.660881   49.491024
H   55.003529   65.536667   97.788895
