100
TIME:    9.930, STEP:  9930
H   45.796295   11.393714   90.054825
H   26.233601   42.956928    4.222568
H   50.458424   88.308250    6.776371
H   83.143326   23.534975   95.864883
H    6.217966   68.690277   96.463600
H   74.035400   90.450188   62.147858
H   32.539150   31.859453   66.992111
H   39.407883   47.672520   96.453545
H    9.529518   31.563015   75.030205
H    3.532935   58.965092   96.520393
H   76.590546   65.796204   83.238701
H   76.841743   21.429470   86.101112
H   10.546513   60.938034   38.291847
H   63.407272   74.468849   12.916897
H    1.215948   83.036285   73.365013
H    2.258218   43.214890    8.763808
H   25.595589   38.762741   77.355423
H   13.414489   11.645031   55.302773
H   99.932831   94.927704   86.523880
H   24.984669   94.938202   92.413200
H   75.015945   67.656075   87.724731
H   14.379120   57.266205   73.647064
H   53.162018   13.868042   48.261536
H   96.417435   55.619843   69.587204
H   74.430893   98.660965    9.870377
H    0.783484   33.367111   56.425297
H    5.803589   29.697969   96.989792
H   94.677437   19.938541   95.004234
H   27.089535   50.019108   87.776077
H   81.753685   45.072128   72.795204
H    6.862695   12.498465   23.749100
H   92.743698   78.154968   79.994255
H   69.814369   41.955963   92.369774
H   97.667648   63.697441   53.415962
H   33.825630    7.829600   29.202375
H   35.834827   63.195995   88.208809
H   32.215523   40.877693   90.910599
H   53.565243   77.232735   23.173851
H   25.922977   65.059044   82.021889
H   27.898769   82.569550   19.306005
H   56.606125   96.906403   76.290977
H   63.367332   80.549088   86.893791
H   96.744720   23.057026   18.727261
H   45.288448   79.323891   51.635098
H   95.274628   40.075169    5.834272
H   49.952850   52.310375   23.503080
H   19.327007   64.870117   20.790205
H   56.793697   97.645782   82.989319
H   55.291733   10.050531   48.343719
H   34.213379   81.883354   89.227394
H   46.573994   11.247879   52.338608
H   87.726730   42.308929   22.193102
H   14.840822   79.586243   26.153065
H   46.733109   45.188362   69.999825
H   50.153725   28.822275   84.794922
H    5.963562    2.088327   54.586151
H   25.771080    3.020219    0.412978
H   86.647903   39.121407   57.781395
H   73.439461   58.350739   49.159374
H    3.742188   91.040558   81.177773
H   86.096191   16.780546   40.182232
H   46.482811   35.515030   46.055099
H   48.236111   29.722612   52.561478
H   24.915043   95.855896   57.542816
H   26.460968   67.751137   20.306162
H   91.334564   48.623833   33.323956
H   90.865578   91.668335   46.482983
H   94.432594   85.444344   40.914032
H   51.813103   36.279861   37.440800
H   31.698105   47.401501   80.782257
H    6.700782   19.758320   43.039986
H   55.554962   21.886131   83.910370
H   59.537964   27.131830    7.142193
H   11.613949   20.950974   13.146940
H   40.808235   42.936649   54.200840
H   60.412193   43.992977   27.766644
H   68.638618   66.334518   66.855858
H   98.501488    1.431525   62.848450
H   37.692619   24.351177   28.477030
H   12.549315   68.085030   65.442879
H    5.211524   32.012768   73.486015
H   86.434868    8.877038   56.259171
H   45.968102   73.183022   75.626465
H   33.317493   61.890945   56.464523
H   68.823532   27.739029   85.152222
H   22.751019   73.800896   31.352680
H   30.357164   81.359947   97.043800
H   15.729284   10.469113   92.624878
H   61.760502   41.285332   46.976204
H   88.393463    0.727296   79.189178
H   30.399832    9.621863   43.165550
H   13.018343   42.310043   22.732470
H   21.985508   25.463995   86.906731
H    3.203645   15.330075    2.131961
H   84.906448   60.261681   44.265755
H   14.098922    3.608021   54.551544
H   74.405724   37.539932   66.104630
H   19.110109   77.796234   79.529137
H   35.670586   79.682335   13.295483
H   56.000771   23.815651   41.151783
