100
TIME:    8.150, STEP:  8150
H   66.170891   74.627342   91.684464
H   75.393570   46.501400   91.988602
H   19.861956   60.247482   27.671196
H   82.844559   96.869499   93.433052
H   22.168055   26.015690   44.724670
H    1.631244   92.378593   85.867989
H   25.829067   11.664126   27.793781
H   79.312363   93.680931   59.888779
H   53.285316    2.703354   87.073776
H   52.154457   33.406925   26.825676
H   42.161880   94.175705   54.699654
H   44.779465   32.207806   12.803314
H   24.051399   68.676346   15.182753
H   51.541710   79.955299   77.459099
H   79.595894   42.034653   58.966164
H   73.829224   98.900047   56.519806
H   68.732491   21.030399   15.315007
H   75.348221   98.260155   17.007267
H   72.201813   20.255138   92.736237
H   72.939316   32.739788   71.222511
H   80.644173   44.859493   36.038982
H   43.728779   54.903229   25.230469
H   76.927956   28.340517   99.168289
H   61.806335   34.325897    1.783432
H   38.092842   39.824837   96.729530
H    9.179470   85.841476   23.930801
H   59.296227    3.690110   61.680065
H   44.868118   36.854145   36.167854
H   88.384483   88.523972   71.917320
H   13.500700   89.126694   31.289738
H   36.809132   52.881386   64.577019
H   80.353325   27.336178   44.777733
H   44.432224   72.189674   32.013321
H   22.458961   26.823738   28.404074
H   78.124641   42.600639   20.904234
H   81.103439   23.772268   93.803902
H   61.489178    6.063826   50.653408
H   27.138290    9.801516   97.565071
H    1.056368    3.843790   54.516655
H   95.554764   49.208023   79.260132
H   78.256973   35.828377   34.354946
H   13.376428   73.563385   96.032860
H   81.426117   12.377254   90.156654
H   58.937778   49.440567   77.598663
H   49.703156   10.336536   53.528053
H   72.922447   18.362297   16.271559
H    5.409835   68.062813    3.697135
H   56.685055   79.312347   72.853371
H    3.265242   57.466187   19.366650
H   96.851318   54.781651   13.684049
H   42.941975   82.813393   39.340363
H    1.218104    7.478973   39.040253
H   77.925484   69.265198   29.532896
H   87.957275   74.231888   91.453995
H   91.879402   72.832581   69.666443
H    3.746574    3.960714   15.181564
H   12.927306   54.381691   31.120369
H   19.190035    7.220084    3.628895
H   33.047573   83.135094   85.810822
H   21.203369   54.225147   31.805199
H   73.808762   99.559692   78.957497
H    9.658516   52.083023   26.592323
H   27.363667   51.141876   74.600494
H    2.685175   86.159546    5.864853
H   55.811981    9.916847   54.543106
H    0.681668   37.112602   28.075962
H   33.679199   30.129581   60.544292
H   17.389702   83.644218   55.819733
H   63.098862   64.179314   49.079788
H   95.547005   57.996166   84.557587
H   63.233143   40.875748   64.388252
H    2.135236   80.987694   53.437061
H   75.595749   15.180010   52.785656
H   50.793179   33.606571   18.908190
H   55.064606   40.315647   19.239981
H   18.326777   29.910976   47.537277
H    6.976497   20.396980   35.282837
H   14.880494   17.814968   64.535461
H   52.334045   29.579601    8.610281
H   99.842247   65.050346   18.791298
H   70.364906   13.597848   67.097290
H   52.865128   97.324509    5.175539
H   33.379814   43.414951    6.107224
H   10.856793    9.572117   19.041073
H   55.493149   39.088940   57.701897
H   63.722851    8.416129    7.743945
H   11.474931   10.780952   12.166786
H   87.103447   52.903664   11.075165
H   24.820705   40.392845   61.534309
H   45.769604   73.964127   15.560396
H   57.554279   13.508437    5.575108
H   81.316368    8.437525   88.817619
H    7.884247   72.059746   49.256592
H   34.931969    7.623897   76.340782
H   15.682503   19.701958    3.365531
H   67.078171   73.897522   46.490913
H   15.693853   35.390343   68.474693
H   22.545931   89.721794   15.269640
H   20.465630   71.995872   62.390545
H   45.438450   69.489120   12.624293
