100
TIME:    3.560, STEP:  3560
H   76.574127   95.551270   95.886734
H    2.241724   97.761612    2.563733
H   40.947914   30.024174   81.552498
H   82.074142   85.977592   45.027813
H   63.284454   58.107204   69.178482
H   72.818611   97.351280   31.304480
H   66.389091    1.724889   68.849571
H   40.077316   96.587784   81.326775
H   66.116341   44.013962   75.998390
H   77.555656   67.499687   47.096863
H   69.112503    9.486839   96.832527
H   19.964676    2.135227   39.523918
H   16.811138   46.322510   71.293297
H   78.810753   94.102943   28.157619
H   23.804199   52.033615   79.647072
H   58.384735    0.358336   37.530617
H   37.833199   17.437672   97.469193
H   77.216026   21.578041   76.124695
H    0.716944   27.699549   50.915775
H   96.608025   30.215784   58.713982
H   53.021271    1.807384   60.615883
H    3.681015   48.809937   16.111359
H   38.212898   65.668968   30.495449
H   88.278908   79.378296   42.677288
H    2.258804    3.832695   62.831215
H   30.334051   21.533873   55.491425
H   55.096760   94.491531   70.608315
H   32.159702   22.608459   84.446465
H   88.579239   72.083084   88.889687
H   37.498764    2.729491   66.398376
H   56.165203   41.287525   27.723076
H   90.537880   54.150452   69.697029
H   21.118727    8.016090   18.509871
H   28.520378   47.469948   21.773647
H   92.278519   89.811302   41.506950
H   82.086357   64.143097    8.398374
H   21.249664   74.160629   88.979485
H   16.851471   93.798836   73.660042
H   94.802856    3.852221   99.322197
H   27.881557   78.908340   18.127264
H   91.951431   78.335098   26.217756
H   11.668663   71.634369   70.053116
H   41.905201   84.848206   58.615185
H   52.028717   72.435638   28.812193
H   47.851620   91.432556   60.749691
H   32.158749   30.818348   97.623268
H   69.547165   18.442738   59.637489
H   56.429539   32.036804   88.850578
H   69.089951   37.610092    2.463126
H    0.541288   84.924385   34.673153
H   43.273014   25.948734   90.952896
H   78.142288   33.397568   40.355000
H   82.721718   42.650818   96.109749
H   94.253624   49.123451   88.910065
H   57.340897   70.574646   30.626047
H   98.020584    8.789663   71.436005
H   21.940775   86.824242   94.572975
H   60.971184   40.689819   21.858192
H   71.045601   89.186966   38.179981
H   24.095879    1.420485   62.355721
H   84.267952   13.016366   36.830006
H   72.563255   94.806107   34.275871
H   15.748277   64.355156   89.350578
H   87.498405   61.160019   30.486439
H   73.626305   76.513252   27.096712
H   82.648811   65.294685   56.678787
H    1.942606   71.439087   38.939739
H   34.452339   21.137598   36.391186
H   34.332268   93.987442   36.955822
H    2.512473   27.199858   94.236786
H    8.985701   53.177589   19.443657
H   80.428513   33.375793   17.267860
H   74.872696   42.213436   70.471672
H   51.844143   24.095165   91.631432
H   33.813747   33.713741   71.270058
H    9.816304   35.735123   56.385723
H   90.179848   17.989136   54.009739
H   99.235596   17.940447   11.044439
H   32.227631   43.061886   57.403656
H   24.936348   15.068031   14.223932
H   80.542343   66.111496   92.762070
H    8.434670   67.477066   89.092163
H   43.040142   66.680176   68.972321
H   95.072739   16.795776   38.265640
H   78.986618   26.204220    2.650426
H   69.360901   39.819176   89.000305
H    4.919088   44.511925   93.297760
H   13.260988   20.271942   58.719948
H   29.564602   95.957573   99.074593
H   51.587246   62.809669   51.477585
H   69.712463   65.659752    8.642495
H   41.698082   63.236794    1.360103
H   13.657248   34.334885   94.304710
H   91.315010   29.172573   66.849846
H   95.038979   30.846539   97.892815
H   87.962967   55.150520   83.570183
H   80.026459   71.981743   32.451042
H   19.934179   46.548950   99.073006
H   39.123131   52.196056   46.850113
H   60.334843   87.278206   54.794327
