100
TIME:    6.826, STEP:  6826
H   55.707596   96.044106   92.896622
H   11.958893   74.755714    8.506011
H   97.101959   64.993721   43.215717
H   82.622330   51.419586   66.008057
H   34.031189   19.891340   80.624756
H   22.165462   93.812981   54.748447
H   95.220016   22.261456   24.255243
H   83.376152   79.137329   81.453377
H   85.831764   30.001419   70.415565
H   88.317177   14.396029   74.983253
H   65.317139   40.901356   82.234337
H   95.310104   65.842743    7.047278
H    8.485519   48.807308   46.755791
H   17.098537   84.036232   76.702156
H   63.514595   60.300865   22.640636
H   27.065601   14.702219   66.423340
H   75.200752   33.457561   94.786049
H   47.038273   62.685883   62.899208
H   51.581005   64.714584   22.982471
H    8.614738   60.851757   81.078453
H   59.212204   76.667816   71.971611
H   16.795609   53.145599   37.981308
H   94.605263   39.106804   37.051437
H   84.824333   18.487032    0.114803
H   85.447823   44.824585   86.951454
H   15.422085   24.869736   48.526329
H   73.466011   58.730064   35.406536
H   56.582932   75.054314   92.403366
H   59.595726   68.400124   34.502655
H   62.732197   21.896599   26.035709
H   84.701759   34.156441   69.327614
H   96.755188   63.913052   67.347054
H   51.171955   69.059746   12.736943
H   66.516548   48.160507   84.183228
H   11.075703   42.846046   40.351143
H   66.010155   20.070374   97.965645
H   34.501450   54.552856   46.327366
H   81.860878   34.033932    4.134293
H   56.946415   32.688225   82.822403
H   20.260880   73.156647   75.090683
H   68.742905   90.400429    3.163099
H   24.955994   68.371307   28.439884
H   70.031830    4.435093   94.523705
H   43.479916   27.216818   48.145393
H   64.549736   62.570637   40.229801
H   90.013878   93.112350   10.892607
H   95.062790   96.058487   90.987297
H   56.604244   65.675568   90.932144
H   64.557747   67.119667   72.183670
H   69.052490   34.629520    6.257519
H   43.032887   10.637094   25.382736
H   36.870327   30.337212   25.952003
H   50.465122   61.588196    6.424742
H   18.618736   95.828506   33.027969
H   97.298203   56.803688   58.408558
H    2.097534    5.353434   60.253647
H   28.990755   92.584877    5.196812
H   17.777739   32.256416   37.734238
H   28.629204   27.187344   87.451881
H    8.574080   52.458019   69.462914
H   90.289604   61.129272   82.187088
H   56.649849   64.406631   86.498993
H   37.477528   41.489418   65.391144
H   11.768448   78.947205   41.814808
H    3.257469   15.662590   31.245073
H   82.015564    2.932684   49.790237
H   39.906113   84.354401   96.620743
H    8.847282    7.923134   92.524872
H   97.107887   59.313507   32.117886
H   68.675987   91.469658   87.359528
H    5.275450   30.960617   80.267525
H   11.140073   24.979252   56.394051
H   61.923294   80.665588   86.729553
H   79.941002   17.402283   97.576416
H   91.280144   38.373333   18.855236
H   87.028023   45.055752   36.626335
H   86.729095   34.993191   11.801615
H   52.678219    4.384364   91.413582
H   88.844963   33.468609   93.837700
H   64.771530   37.175575   32.855095
H   44.447212   99.899765   87.963440
H   53.513680   88.738388   15.941616
H   49.635773   21.272863   80.017319
H   19.767933   96.274437   39.967213
H   19.959761   21.914490   86.048302
H   94.188522   59.786629   15.801555
H   23.047899    7.046767   49.033424
H   65.809868   58.851437   24.802856
H   97.340927   14.111750   72.362923
H   62.829624   28.435711   68.227905
H    3.370707   42.015869   77.614426
H   83.353775    8.860019   63.584694
H   23.013096   32.333309   46.869637
H    6.973721   27.298304   87.065735
H   38.575691   38.298393   72.940643
H   57.721207   26.180037   14.877384
H   20.786573   59.409821   44.620026
H   25.101564   24.210182   41.849388
H   83.538261   66.278526   73.288780
H   63.198727    3.469319   40.170467
