100
TIME:    3.299, STEP:  3299
H   94.224762   19.486107   96.125687
H    9.502201   83.611633   86.099960
H   36.461578   11.247474   84.615074
H   82.030334   96.730461   59.335102
H   65.622208   37.186901   76.255463
H   76.864876   97.634041    5.456572
H   80.069130   84.101967   48.439034
H   60.591400   74.006760    5.290075
H   72.532219   69.107971   92.426384
H   84.688393   63.752113   36.875664
H   93.390091   98.985168   21.973436
H   29.927010   89.052643   58.102486
H   33.413284   62.113297   97.235588
H   91.734108   94.907417    8.294682
H   20.629116   75.347427   92.192085
H   68.878738   23.186615   59.195656
H   58.821205    0.174900   73.709335
H   71.640465   34.270409   85.173035
H   96.650978   16.749544   37.166042
H    3.640160   35.757816   40.943871
H   68.509384   27.791443   67.699875
H   78.658691   48.463455   38.337936
H   41.697624   67.791664   37.962921
H   12.528702   76.248016   62.062321
H   11.593366   24.531967   60.903664
H   31.531801   29.310785   79.955498
H   77.602905    5.340631   65.431007
H   54.181179   10.425858   75.820274
H   82.904114   48.402878    1.227524
H   27.491081    9.189675   45.649323
H   45.892231   17.883505   48.372566
H   74.058113   61.360847   93.859123
H    2.733950   27.111393   94.996925
H   17.491718   71.389107   32.768524
H   98.766083    9.541066   25.614609
H   59.389843   43.638981    9.299424
H   96.216316   83.718735   68.413628
H   27.638191   98.573906   55.241726
H    5.819449    9.538298   24.614428
H   52.463978    3.341449   97.592384
H    9.788805   69.378357   20.068708
H   35.125847   59.921013   57.790863
H   39.657055   83.283066   39.763813
H   68.695663   68.062805    3.293049
H   70.490959    1.731151   38.415585
H   35.525990   25.840168   96.563911
H   67.508102    4.248022   57.130478
H   56.415600   29.349569   72.701363
H   61.460060   59.225349   12.874970
H   95.069084   80.953789   52.927143
H   43.292927   51.146530   88.200958
H   65.457886   57.617409   57.489895
H   77.309441   41.137451   11.268078
H    0.299030   53.382782   77.392548
H   78.121811   47.700333   28.406775
H   97.694016    9.064459   80.321060
H    5.394977   94.355232   69.749779
H   80.405998   65.337784   28.581722
H   50.461143   78.159302   58.218151
H   41.318390   81.360275   69.779182
H   67.804115   25.154026   57.178814
H   81.826653   97.235458   46.086105
H   98.029030   82.165092    7.248154
H   69.576958   59.740242   37.573376
H   63.267567   97.357887    2.790250
H   98.682533   78.269814   41.246429
H   22.883759   62.414989   26.338522
H   52.481316    6.210059   23.913877
H   21.323288   12.741219   53.326069
H   97.224182   14.072325   94.786377
H   17.273949   70.935753   22.574932
H    1.950056   42.037827   98.158691
H   91.890106   55.122852   77.162346
H   57.590954   40.612289    7.139482
H   21.230047   33.341373   51.484776
H    3.645682   19.007219   73.947876
H   66.483711   40.611359   49.393970
H   86.973343   35.006817   96.630371
H   19.712484   43.828526   54.490425
H   37.736244   29.282726   36.709335
H   75.436722   63.411327   77.162445
H   88.851837   65.772537   10.916983
H   26.526525   62.323273   44.113285
H   77.115448   94.461273   62.103157
H   91.694916   42.530659   27.951271
H   75.366577   30.231384   70.875748
H   87.487465   63.488747   80.852310
H    9.060400   41.168350   61.434052
H   24.147346   10.489483    1.209631
H   74.663177   73.546829   42.148476
H   59.031281   51.567287    3.130635
H   22.385229   43.608826   96.386086
H   96.927017   26.503210   74.121178
H   66.089577   13.340965   49.252655
H   99.551201   54.226063   91.895103
H   66.405457   65.457344   97.051094
H    0.743630   57.003399   47.461250
H   18.976377   44.326691    3.249556
H   51.556633   51.070988   68.711861
H   44.123898   93.976845   79.936859
