100
TIME:    0.294, STEP:   294
H   97.440834   95.060097   98.876846
H   93.092049   20.684944   96.545990
H   84.815765   95.055717   19.887825
H   81.525955   20.537504   24.047773
H   92.537720   96.322922   57.733574
H   23.457352    0.893668    7.860945
H   37.562008   81.190178   13.443894
H   96.778473   14.037245   81.200172
H   46.400917   58.026505   81.581215
H   66.806038   20.607788   19.201990
H   72.907867   78.072311   11.430252
H   44.620205   38.427254   72.001884
H   24.561390   43.920059   95.908012
H   40.524769    4.170797   79.613869
H   84.078560   43.761299   36.639980
H   89.702545   86.021980    8.635151
H    0.429393    1.439776    0.123129
H    7.427285   80.403351   89.353806
H   49.842346   90.686249   78.851227
H   84.691078   99.367615   36.245293
H   46.830170   26.948692   49.262390
H   90.538368   44.487984   94.221687
H   81.818703   92.231133   23.938789
H   91.725723   40.207829   85.239914
H   19.068224   62.858112   38.729446
H   45.310917   18.849247   61.616066
H   36.726673   30.255398    5.800282
H    7.734486   70.162109   76.493362
H   17.564072   75.766045   43.274261
H   12.267108   83.563217    6.761078
H   27.666872   48.406898   86.147270
H   84.320770   44.387856   72.047035
H   91.066589   46.971504   24.282797
H   90.524117   46.779297   59.365410
H   73.463997   36.696121   42.630516
H   98.116875    7.580797   19.632719
H    7.997785   93.768410   31.631237
H   51.837494   53.573193   43.187649
H   37.503147   74.231956   13.947749
H   35.502102   84.660042   61.166466
H   15.150517   66.266609   49.266270
H    5.198135   25.052042   16.612600
H   13.773723   65.262970   22.709354
H   60.585464   17.698759    9.477692
H   31.153473   20.292057   81.265686
H   74.196587   68.731010   84.471214
H   39.184437   41.600910   30.135443
H   56.255116   98.409744   86.769012
H   73.622185    8.100811   32.745850
H   32.055904   35.224262   63.100822
H   43.522190   41.260063   56.516773
H   19.420656   36.457787   54.762428
H   14.977741   23.713440   85.795204
H   69.878510    2.405100   44.789387
H   17.353767   84.278595    2.900878
H   93.934097   12.222980   82.618347
H   14.890768   81.063606   83.949226
H    4.167332   49.122063    5.981974
H   13.464645   51.191071   88.913010
H   39.617279   50.386375   55.247520
H   78.246292   64.896713   91.473480
H   88.476501   25.208847   82.052551
H   94.174416   87.104652   13.388568
H   63.229050   43.393768   19.158072
H   43.991722   37.362797   22.940496
H   83.284554   27.657520   63.569439
H   63.980492   58.524982   81.256332
H   60.057198   34.351913   80.257500
H   71.556419   28.661354   41.793758
H   36.342262   62.932602    1.112527
H   12.696409   75.400719   58.621342
H   49.724918   41.768288   78.147469
H   87.822098    3.765354   54.210880
H   23.719788   30.774469   85.735313
H   76.345871   29.062025   23.685299
H   32.608822   26.414831   76.146500
H   93.648071    1.062171   96.235291
H   45.792984   31.496471   30.676594
H   75.645683   52.640255   20.966660
H   85.107162   92.942299   95.592896
H   16.635143   32.323223   97.560699
H   63.383244   46.147598   62.196548
H   36.398281   12.164557   57.901886
H   70.395233   37.319553   36.576515
H   38.014755   30.493958   19.252331
H   44.526821   19.852943   62.199512
H   86.790306   81.976723   37.562222
H   60.687988   81.755745   92.682777
H   61.784370   77.802879   25.795441
H   40.342201   97.189774   34.721966
H   36.054264   89.306763   39.670483
H    0.039650   17.617758   39.126076
H    4.147979   36.440353   41.659660
H   75.644447   31.065489   46.641117
H   51.508915   23.394680   22.842518
H   18.204819   84.121696   52.263496
H   39.265709   84.552544   20.280800
H    7.944643   18.740906   51.331406
H   94.706718   38.117611   20.425114
H   57.499889   71.152245   69.369614
