100
TIME:    7.940, STEP:  7940
H   80.372551   93.885460   91.876724
H   81.193436   35.121166   78.748245
H   16.252260   45.138992   30.136139
H   82.809311    5.521748    4.943527
H   24.049807    9.183263   50.418793
H    4.888066   92.606102   65.071785
H   36.834843   97.483612   11.371510
H   95.817947   75.512291   79.169670
H   58.447517   22.894520    0.291724
H   57.890236   30.391634   18.602524
H   61.695572   85.725845   74.927948
H   52.795135   21.681530   27.750786
H   37.442360   81.387985   36.051701
H   61.939812   80.602577   61.478771
H   77.045235   60.792892   69.065460
H   82.272675   17.267700   73.951447
H   85.619392    7.140920   96.197876
H   70.858932    8.478628   24.286739
H   68.930176   11.444791   81.671631
H   78.598190   37.198635   56.924721
H   93.105873   65.766113   41.737911
H   23.595873   54.624451   43.113922
H   79.731758   30.047632    5.176787
H   81.317780   31.813692   17.380070
H   45.603828   56.479424   95.178627
H   10.169613   92.032272   43.693275
H   77.404404   12.419854   57.512814
H   62.586548   27.052053   29.225958
H   83.818291   69.470932   81.844383
H    5.448580   94.324142   14.595898
H   28.543856   34.051048   81.191551
H   67.093742   33.137646   64.218498
H   29.639490   87.554512   13.094861
H   13.585437   46.069038   37.250946
H   83.350929   58.500603    8.127151
H   62.848286    7.323560   94.463997
H   41.348263   13.755056   34.106167
H   35.817711   13.644728   82.744972
H    9.920918    8.418795   74.867455
H   15.334545   68.867889   62.738403
H   92.609238   28.623404   29.407438
H   31.074089   72.739868   85.311119
H   79.618866   11.117546   74.987282
H   72.346878   45.914940   57.065754
H   67.918678   18.621555   35.557648
H   75.633324   14.357665   15.418402
H    3.768209   56.642525    1.680300
H   56.672237   77.149414   59.859753
H   97.126472   74.858772   27.743610
H   92.442139   51.585316   28.367226
H   42.956394    3.087404   37.126160
H   91.012192   26.965406   52.825348
H   73.570778   68.047546   41.728798
H   92.821472   77.657333   82.187027
H    8.599998   54.429192   67.881622
H    3.485019    4.181614   22.330460
H   99.614441   60.441109   11.147584
H   34.826584   27.052572    9.038238
H   16.485062   74.262260    1.931984
H   35.060562   38.083256   37.778099
H   60.561993    9.325394   95.331703
H   17.111824   54.037674   36.094353
H   13.106730   65.471710   89.000824
H   88.265434   85.015594   11.566661
H   47.475876   26.689375   34.986984
H   13.581589   47.552361   15.659112
H   50.527649   22.869335   50.405743
H   31.895775   71.634331   45.780518
H   52.631866   79.268578   62.251251
H   91.282021   47.449062   85.002991
H   69.901573   55.164795   66.906868
H   19.427979   87.960350   38.044987
H   89.287918   25.567698   58.170559
H   55.415447   46.896595   31.385111
H   44.948486   40.006428    3.317901
H   13.361856   16.451923   61.666840
H   87.904015   38.573631   31.557878
H    5.015454   31.545589   52.937260
H   42.264389   30.196438    6.266703
H   10.140496   76.489861   36.883034
H   66.253731   11.425302   54.545868
H   37.107758   95.962662   22.744133
H   20.096918   39.902988   86.108475
H   96.409004   91.601929   38.220684
H   65.718216   52.225155   78.059105
H   68.555099    0.702467   93.160782
H   97.449425   26.049797    2.153108
H   83.726067   69.708313   13.252518
H   20.461994   52.085503   63.251839
H   64.337158   82.603043    8.053816
H   48.960224    2.169476    1.140103
H   65.778496   92.643600   84.815392
H   94.422913   65.760002   33.016968
H   14.636560   94.883507   62.180782
H   19.313828   38.513069   98.540070
H   49.733047   82.190369   57.337624
H   32.362083   23.339375   80.551872
H   22.951281   79.330101   19.485758
H   30.469597   71.089043   79.979347
H   32.395161   74.878830   32.854862
