100
TIME:    8.052, STEP:  8052
H   72.798332   83.614464   91.774185
H   78.100174   41.190624   85.809769
H   18.177431   53.196854   28.821503
H   82.828110    0.907063   98.804390
H   23.046206   18.160557   47.381927
H    3.151097   92.484764   76.163094
H   30.965260    5.046405   20.130054
H   87.014969   85.202232   68.886711
H   55.694344   12.125859   93.242142
H   54.831154   31.999788   22.988205
H   51.277603   90.232437   64.139130
H   48.520111   27.295544   19.778801
H   30.300514   74.608444   24.921667
H   56.394157   80.257362   70.001732
H   78.405586   50.788498   63.678795
H   77.769501    7.471615   64.654572
H   76.613045   14.548714    6.393682
H   73.253220    3.028793   20.404354
H   70.675049   16.143642   87.572754
H   75.580124   34.820583   64.550209
H   86.459633   54.615978   38.698483
H   34.333424   54.773132   33.576080
H   78.236397   29.137171    1.972228
H   70.911774   33.153534    9.061837
H   41.597969   47.596977   96.005775
H    9.641537   88.730515   33.153114
H   67.746933    7.763946   59.735348
H   53.136719   32.279835   32.928154
H   86.253593   79.632553   76.549950
H    9.743044   91.552170   23.499279
H   32.951847   44.093895   72.330467
H   74.165520   30.043530   53.850090
H   37.528889   79.359932   23.184706
H   18.317932   35.804878   32.532440
H   80.563576   50.020622   14.941513
H   72.584366   16.096205   94.111946
H   52.090084    9.653067   42.931362
H   31.188850   11.595015   90.649025
H    5.193163    5.978792   64.013695
H    4.785412   58.382812   71.550049
H   84.954697   32.466057   32.046108
H   21.635368   73.179077   91.029381
H   80.582733   11.789391   83.077614
H   65.194977   47.794922   68.016388
H   58.203613   14.202888   45.141632
H   74.187523   16.493469   15.873419
H    4.643743   62.733345    2.755945
H   56.679073   78.302979   66.789680
H    0.400797   65.582405   23.275898
H   94.793701   53.290028   20.536232
H   42.948704   92.274544   38.307068
H   96.455307   16.572645   45.473297
H   75.893288   68.696960   35.224403
H   90.227234   75.830429   87.129410
H   99.682198   64.244720   68.833527
H    3.624515    4.063801   18.517715
H    6.714641   57.209419   21.799782
H   26.487024   16.475241    6.153258
H   25.318375   78.994438   93.333984
H   27.670059   46.692265   34.592552
H   67.626938    4.117050   86.598793
H   13.136726   52.995193   31.026443
H   20.710430   57.829132   81.320648
H   95.955864   85.625702    8.525737
H   51.921799   17.744123   45.416916
H    6.701645   41.984489   22.281437
H   41.541809   26.741467   55.812969
H   24.159203   78.039604   51.134766
H   58.214264   71.220970   55.226471
H   93.556679   53.074184   84.765442
H   66.345177   47.544312   65.563606
H   10.205152   84.241600   46.254093
H   81.985428   20.027597   55.298611
H   52.950237   39.808582   24.730753
H   50.343750   40.171345   11.809635
H   16.009714   23.630085   54.131073
H   98.075890   28.879417   33.544479
H   10.276837   24.222591   59.122929
H   47.634872   29.867458    7.516611
H    4.648099   70.388786   27.234108
H   68.446358   12.583993   61.239960
H   45.511688   96.688980   13.374199
H   27.181086   41.776035   96.774246
H    4.114583    1.185941   27.991558
H   60.264847   45.219173   67.201927
H   65.977951    4.816421    0.938390
H    4.929691   17.906487    7.493772
H   85.527336   60.746086   12.091263
H   22.786640   45.849419   62.335823
H   54.434475   77.995621   12.057325
H   53.543720    8.216914    3.505434
H   74.065361    1.067148   86.949913
H    1.602329   69.119865   41.678101
H   25.460840    1.678416   69.732780
H   17.377121   28.480476    1.113704
H   58.983780   77.767517   51.552711
H   23.472357   29.766438   74.110710
H   22.735094   84.872337   17.237162
H   25.134148   71.572685   70.598732
H   39.351582   72.004318   22.065189
