100
TIME:    7.762, STEP:  7762
H   92.410149   10.208711   92.039688
H   86.109512   25.475063   67.525467
H   13.192614   32.332748   32.225544
H   82.779434   12.855801   14.700596
H   25.644815   94.915871   55.245239
H    7.648606   92.798943   47.443253
H   46.163166   85.465027   97.451660
H    9.808403   60.112545   95.512230
H   62.823097   40.008804   11.496258
H   62.751991   27.835817   11.632423
H   78.252701   78.563583   92.074463
H   59.589371   12.759382   40.420998
H   48.792793   92.162613   53.740070
H   70.753441   81.151222   47.932400
H   74.883247   76.692734   77.626495
H   89.429504   32.836182   88.726837
H   99.933052   95.367493   79.993835
H   67.053726   17.139862   30.456959
H   66.157074    3.977063   72.293060
H   83.394760   40.978039   44.805641
H    3.668628   83.485718   46.568432
H    6.530838   54.388153   58.272278
H   82.108315   31.494616   10.269748
H   97.855896   29.684298   30.599834
H   51.970284   70.595535   93.864052
H   11.008877   97.279709   60.444603
H   92.752884   19.819258   53.980572
H   77.606255   18.743612   23.342283
H   79.947899   53.321217   90.258751
H   98.623428   98.729599    0.445808
H   21.538446   18.089504   95.274345
H   55.854671   38.055080   80.696861
H   17.101458    0.578016   97.059212
H    6.064315   62.381721   44.750000
H   87.780830   71.977715   97.297348
H   47.374866   93.381622   95.023506
H   24.276131   20.274290   20.080412
H   43.174171   16.902401   70.183174
H   17.434635   12.296656   92.117180
H   32.100128   85.530945   48.733017
H    4.774287   22.516333   25.213835
H   46.074913   72.041840   76.223167
H   78.087006   10.049793   62.129627
H   83.713608   42.927269   39.662571
H   83.359505   25.643940   20.325436
H   77.931114   10.963264   14.695250
H    2.376735   46.962471   99.970818
H   56.661373   75.316071   48.846111
H   91.922493   89.601570   34.844353
H   88.704834   48.876041   40.813393
H   42.968616   20.272623   35.249359
H   82.361526   43.482944   64.509857
H   69.879646   67.015442   52.066139
H   96.944458   80.560806   74.332169
H   22.773102   38.829475   66.368774
H    3.263321    4.368853   28.389999
H   88.329193   65.577187   94.218147
H   48.080978   43.862495   13.623294
H    2.446346   66.741478   15.597183
H   46.806183   24.401081   42.840843
H   49.333782   17.603004    9.210107
H   23.429390   55.694473   44.148842
H    1.022200   77.617950    1.206818
H   76.043144   84.045959   16.399586
H   40.410034   40.906361   18.410288
H   24.515785   56.401299    5.134023
H   64.808716   16.715412   41.812115
H   44.191399   61.454521   37.271088
H   43.759842   92.058525   73.414490
H   87.666939   38.509136   85.380524
H   75.553703   67.275726   69.041695
H   34.085804   93.870506   24.998007
H    0.893677   34.372318   62.734905
H   59.333370   58.161472   41.961426
H   36.373871   39.744328   89.821838
H    9.153653    5.043730   73.644417
H   71.737999   53.980507   28.401133
H   96.653198   43.183926   43.106464
H   33.729156   30.719280    4.280241
H   18.869476   86.186211   52.217934
H   62.769020    9.583810   43.907043
H   23.751091   94.808334   37.635380
H    8.838151   36.926182   69.157516
H   84.162270   76.370239   54.477688
H   74.385178   63.359661   95.314262
H   72.650925   94.164825   80.799973
H   85.561211   38.991844   93.665382
H   80.863335   83.951355   15.098083
H   16.767467   61.996422   64.707649
H   80.074036   89.925552    1.690929
H   41.675739   92.557564   97.381027
H   52.608295   79.256119   81.423027
H   83.012726   60.419308   19.251955
H   97.433662   84.084435   50.178493
H   22.391808   54.457726   94.449677
H   35.030991   89.219543   66.531502
H   46.491051   13.124839   90.788719
H   23.294863   70.521904   23.059420
H   38.949150   70.320396   94.887825
H   21.339418   79.447250   50.002735
