100
TIME:    0.126, STEP:   126
H    8.801805   10.466455   99.030655
H   97.765266   11.576271   85.948578
H   81.929291   82.968925   21.860420
H   81.497757   27.459532   33.256508
H   94.042480   82.856979   62.288872
H   26.062485    1.076516   91.223534
H   46.366268   69.846794    0.305850
H    9.982946   99.503326   96.624611
H   50.530678   74.178970   92.155556
H   71.397224   18.196198   12.622828
H   88.534821   71.312424   27.612839
H   51.032742   30.006233   83.960503
H   35.247688   54.084244   12.605832
H   48.843250    4.688780   66.829811
H   82.035469   58.766609   44.716213
H   96.456879    0.716358   22.580685
H   13.935957   90.329689   84.826866
H    3.837300   88.573151   95.178024
H   47.226318   83.639252   69.999542
H   89.238686    2.890360   24.783991
H   56.799530   43.674095   53.821533
H   74.429482   44.266243    8.526552
H   84.061745   93.597466   28.745949
H    7.334805   38.192936   97.716354
H   25.076372   76.180611   37.488724
H   46.077534   23.858780   77.361015
H   51.214161   37.239429    2.466641
H   21.909233   62.320431   70.940872
H   13.910933   60.523617   51.215912
H    5.825412   87.721176   93.405632
H   21.058229   33.341347   99.441460
H   73.713104   49.029030   87.599648
H   79.233582   59.263374    9.148030
H   83.425850   62.175537   66.443169
H   77.639900   49.395584   32.400963
H   83.510185   94.383659   20.210783
H   91.884590   99.920326   18.393211
H   58.780670   56.648083   31.332850
H   45.056431   77.818260   30.050186
H   51.325161    0.386995   47.947899
H   26.631046   60.502125   45.306980
H   20.297012   17.511576    8.719951
H   12.326961   64.255524   10.574640
H   71.313614   14.883420   93.051285
H   45.725594   26.920567   66.889709
H   76.342216   65.572807   83.812401
H   37.410511   32.537739   28.699896
H   56.246143   96.679398   76.374115
H   68.710564   22.014080   39.448059
H   28.532408   32.667194   74.851700
H   43.531445   57.480125   54.751553
H   11.256623   52.047569   65.791580
H   11.493015   22.739319   95.551796
H   73.767303    5.146418   37.375813
H   30.728706   69.551422    1.475344
H   93.723892   12.399860   88.337463
H    4.240484   85.911140   67.971077
H   16.677485   64.987419   10.309443
H    0.215295   44.092804    1.809955
H   50.706573   37.472816   60.019707
H   67.648880   72.710190    4.572501
H   94.439148   26.772568   89.653259
H   82.779762   98.560829   24.914032
H   51.692123   42.479889   23.719778
H   37.322838   50.781315    7.294957
H   93.605110   36.009327   53.635967
H   77.459251   52.717426   73.145493
H   71.662056   24.743519   72.226128
H   63.183983   40.732765   52.330929
H   32.939247   54.482101    1.465806
H   18.031645   86.831261   60.636234
H   63.576664   47.343849   65.847908
H   98.775833   12.074863   58.518803
H   27.417603   41.406414   95.720055
H   68.245285   28.822981   10.949433
H   28.636717   15.647589   87.451431
H   78.395386   15.623299   93.261658
H   37.900040   42.481495   21.398426
H   67.593803   53.131161   19.093399
H   93.346176    2.091508   10.066135
H   13.347744   30.584665   87.519562
H   50.777897   45.050430   76.244568
H   25.768452    9.360435   41.900665
H   58.838509   22.943577   51.921486
H   46.195511   41.003586   35.537895
H   48.397556   13.678279   50.534359
H   75.569969   94.191689   29.551357
H   57.983521   95.206306   94.428505
H   58.298042   87.157005   27.170105
H   55.194984    4.102754   28.716089
H   29.179018   80.234619   36.122631
H   87.609352    4.983022   35.925575
H   93.368782   31.406893   28.662668
H   59.407021   20.875029   35.314396
H   54.413334   38.443569   18.982563
H    4.328678   90.755974   60.940865
H   52.600914   74.911308   29.942543
H    7.327967   17.310486   54.019211
H    2.709782   37.393429   34.497318
H   47.066540   75.466576   85.550278
