100
TIME:    7.134, STEP:  7134
H   34.878494   67.798866   92.614639
H    3.453450   91.444374   27.926376
H    2.397594   87.152840   39.599293
H   82.674026   38.730377   49.124638
H   31.272150   44.578899   72.273376
H   17.388210   93.479301   85.250259
H   79.076523   43.060009   48.341244
H   59.167961    5.784249   53.174339
H   78.260536    0.388269   51.027699
H   79.904701   18.818666   87.042702
H   36.667725   53.294483   52.565994
H   83.556137   81.281281   85.123451
H   88.838142   30.173161   16.149548
H    1.848637   83.086891    0.139602
H   67.255562   32.788780    7.829506
H   14.680698   87.763184   40.856934
H   50.433296   53.828442   22.824518
H   53.624912   47.698517   52.223824
H   56.377056   77.634079   39.208210
H    0.317403   54.312115    2.048524
H   40.935043   46.005547   63.610943
H   46.323868   53.554474   11.752243
H   90.493019   36.601860   28.238985
H   56.207176   22.171602   77.241318
H   74.431709   20.397858   89.226112
H   13.969875   15.791077   19.541391
H   46.906452   45.925713   41.518505
H   30.595837   89.430717    2.583378
H   66.292809   96.344582   19.943937
H   74.542557   14.273540   50.520897
H   96.822304   61.774269   44.959633
H   16.202206   55.404232   38.833931
H   72.867195   46.524651   40.484016
H   79.530037   19.934067   71.207336
H    3.410069   19.526100   59.091225
H   92.784386   44.194550   96.997505
H   64.041458   43.273560   70.596649
H   69.129372   28.396633   25.868141
H   43.944675   25.978098   52.974564
H   91.250435   44.322338   99.322372
H   47.692917    0.969876   10.418877
H   98.999168   69.579132   44.163021
H   72.682465    6.282665   16.770771
H   23.813992   32.386497   78.259880
H   37.834206   50.419544   66.585762
H   86.037926   98.986984   12.143904
H   97.469040   12.809026   93.943413
H   56.623043   68.847870    9.989180
H   73.562386   41.611721   59.897850
H   75.519287   39.317478   84.723030
H   43.011738   80.901688   28.629059
H   51.841198    1.756021    5.734087
H   56.854374   63.374084   88.537209
H   11.486931   90.804520   46.619522
H   72.775131   83.794731   61.028645
H    2.481148    5.029448   49.768600
H   48.515690   83.697731   34.490303
H   94.843674    3.168813   29.800806
H   52.919640   40.203182   63.807655
H   88.248589   76.131592   60.702660
H    9.718489   46.806915   58.172157
H   45.718330   61.539810   72.564362
H   58.388874   20.471684   44.270660
H   32.918354   80.625000   33.451679
H   15.482696   91.063477   59.927418
H   63.094543   87.621147   68.001602
H   15.194254   95.003937   11.491405
H   87.571465   25.538809    7.249053
H   12.458677   37.182587   12.799838
H   74.917198    6.960557   86.710968
H   95.494926   10.004455   76.573555
H   85.793800   14.730292   78.966743
H   41.841446   65.433838   78.834045
H   73.159325   97.909058   79.275757
H    6.123906   38.819614   42.206303
H   94.307869   64.796776   15.902066
H   14.702142    8.334103   17.263849
H   67.148621   84.245827    8.422795
H    3.615677   32.563915   97.273186
H   49.666672   20.396809    6.320745
H   50.474648    3.086861    6.372007
H   76.625771   90.735764   90.173927
H   69.117790   26.423742    9.348766
H   40.957241   22.631050   11.837029
H    4.962996    2.647644   56.191063
H   87.101364   71.099701   37.189926
H   43.618519   84.652550   63.720009
H   70.763359   34.203823   21.609406
H    3.733042   96.963036   69.843880
H   35.597172   15.762951   79.239319
H   15.975422   58.645782   84.118820
H    6.142656   32.023880   69.454460
H   42.756565   41.575283   70.687752
H   36.740135   45.984337    7.833628
H   33.250923   10.708763   80.018402
H   83.160721   14.018273   98.968330
H   96.339317   77.085419   26.906490
H   24.507051   39.449581   35.666924
H   68.865776   67.608543   47.490582
H   82.331139   95.565048   10.498977
