100
TIME:    6.508, STEP:  6508
H   77.212967   25.205599   93.187759
H   20.740334   57.524303   88.455727
H   91.633423   42.115150   46.949558
H   82.568954   64.520782   83.437500
H   36.879486   94.402328   89.247284
H   27.097820   94.157494   23.254963
H   11.886498    0.787952   99.387154
H    8.370331   51.625912   10.650300
H   93.648811   60.575729   90.431282
H   97.002785    9.829412   62.532261
H   94.896729   28.105856   12.866352
H    7.447151   49.902958   29.682034
H   28.777817   68.038872   78.353935
H   32.843086   85.016396   52.502605
H   59.652168   88.706200   37.932644
H   39.851868   42.515602   92.819824
H    0.772360   12.425185   65.837257
H   40.237782   78.159851   73.923378
H   46.629238   51.373329    6.229890
H   17.181465   67.605019   59.427513
H   78.082779    8.324772   80.603844
H   86.308640   52.723450   65.061966
H   98.851021   41.693077   46.149490
H   14.370571   14.682833   23.732447
H   96.821602   70.043808   84.602943
H   16.879187   34.266800   78.433662
H    0.886373   71.948685   29.096128
H   83.415451   60.211143   81.893295
H   52.681206   39.548382   49.535065
H   50.538380   29.767021    0.756395
H   72.187691    5.641003   94.486763
H   76.676392   72.700531   96.785927
H   28.771511   92.326500   84.088989
H   53.080544   77.303391   97.580414
H   18.990173   66.923134   21.002619
H   38.366634   95.162880   98.965218
H    4.001277   66.198364   21.270117
H   95.005745   39.854259   81.692818
H   70.369141   39.617302   13.638853
H   50.212147    2.925652   50.070896
H   90.476334   79.487617   95.671364
H   51.755219   67.124268   12.205319
H   67.295135    2.527417   71.552940
H   63.784344   21.879293   17.053732
H   92.135033   75.118393   13.017287
H   94.118919   87.046982    9.600683
H   92.578415   78.764908   87.935204
H   56.586979   62.400269   71.256088
H   55.263031   93.457924   84.867569
H   62.376324   29.788801   28.492189
H   43.054722   41.338409   22.031013
H   21.412510   59.846443   46.826576
H   43.868427   59.744324   24.893789
H   25.982094    1.015981   18.996258
H   22.618469   28.934666   55.703403
H    1.701465    5.687939   71.079117
H    8.831679    1.760654   74.952370
H   41.456207   62.287270   45.924911
H    3.549817   13.749015   11.863995
H   29.558044   28.014584   78.507591
H   70.230217   75.918594    6.981792
H   67.936287   67.366531    0.886173
H   15.888147   63.188881   87.197357
H   89.932358   77.214935   50.449467
H   90.636261   41.061146    1.630306
H    1.550816   18.740959   30.987593
H   65.419479   73.359100   81.268082
H   30.813820   89.736305   77.322632
H   81.260292   82.162964   52.063244
H   62.232803   75.476494   88.029144
H   15.373764   52.597000   84.081429
H   37.352825   35.537262   33.106804
H   82.657150   96.395233   94.881409
H   86.942863   37.528057   16.470320
H   75.946892   37.919643   94.748184
H   79.511818   24.674122   58.022530
H   57.848232   62.517834    6.161936
H   37.738003   25.177713   73.853127
H   73.594200   34.402676   90.290672
H   80.366806   54.498268   60.251152
H   38.224144   96.609909   68.957001
H   29.652399   86.676163   42.545055
H   29.520584   15.954753   49.733002
H   97.890038   69.062767   69.011040
H   35.444145   41.806473   16.874634
H    1.506224   48.104729   93.718353
H    1.809332   30.168175   33.870003
H   60.695549   84.297363   28.099991
H   90.741806   31.816626   74.963753
H   90.943924   41.519924   56.860504
H   90.356804   24.845520   70.898849
H   59.824993   84.943375   57.526604
H    2.628922   22.791271   22.278208
H   76.239632    8.005830   65.623444
H   44.073341   66.783554   65.633087
H   31.455734   38.737213   31.302444
H   46.027672   41.160339   62.908325
H   25.715380    8.475404   48.232582
H   98.687126   64.905327   99.923027
H   43.447460   11.629498   70.804893
