100
TIME:    6.952, STEP:  6952
H   47.186600   84.489235   92.781265
H    8.479454   81.582893   16.450706
H   99.268738   74.058815   41.736271
H   82.643478   46.228546   59.101368
H   32.902618   29.990797   77.208282
H   20.211132   93.676476   67.226883
H   88.615860   30.769955   34.108608
H   73.472801   90.038513   69.885048
H   82.734444   17.887070   62.484623
H   84.875710   16.205416   79.916664
H   53.596924   45.971272   70.096916
H   90.501663   72.158508   98.078621
H    0.445170   41.187054   34.235771
H   10.859959   83.647865   86.290199
H   65.044991   49.045921   16.581539
H   21.999050    3.681593   55.964355
H   65.068611   41.791103    6.256341
H   49.732807   56.554688   58.532005
H   53.543026   69.999832   29.620274
H    5.220375   58.176449   89.657127
H   51.735184   64.124725   68.551292
H   28.875351   53.312866   27.251236
H   92.922981   38.082054   33.446548
H   73.117577   19.994356   90.757462
H   80.941231   34.831833   87.881996
H   14.827999   21.155739   36.668648
H   62.601231   53.491920   37.906887
H   45.951874   80.935570   96.567734
H   62.335442   79.831947   28.546698
H   67.563705   18.778130   36.052208
H   89.660164   45.454643   59.358894
H    4.710859   60.432171   55.682594
H   60.047672   59.840843   24.088018
H   71.840248   36.613327   78.874908
H    7.939692   33.306068   48.017540
H   76.963249   29.939598   97.569588
H   46.585999   49.938599   56.255711
H   76.652534   31.727764   13.025443
H   51.627522   29.943102   70.611923
H    8.393105   61.361233   85.003647
H   60.131546   94.724373    6.131382
H   14.337395   68.865417   34.872234
H   71.116180    5.190918    3.625042
H   35.434765   29.331686   60.464500
H   53.620628   57.599735   51.011784
H   88.387352   95.515610   11.404501
H   96.047165    2.910829   92.196617
H   56.611935   66.973328   98.728317
H   68.241463   56.684429   67.157974
H   71.697998   36.547321   97.447701
H   43.024235   98.472397   26.710777
H   42.994793   18.644875   17.680946
H   53.078907   62.318787   99.106850
H   15.701180   93.773239   38.588150
H   87.266037   67.845848   59.480412
H    2.254467    5.220894   55.964310
H   36.978230   88.949226   17.180641
H    8.395700   20.356928   34.488876
H   38.566200   32.512005   77.779243
H    0.259523   62.143154   65.879173
H   98.237663   55.270126   72.362564
H   52.177864   63.233841   80.798462
H   46.032169   32.891518   56.750946
H   20.420662   79.633575   38.393528
H    8.258765    5.599153   42.978779
H   74.275146   96.668938   57.240341
H   29.796938   88.711029    2.704059
H    0.143400   15.129546   98.548401
H    3.387546   50.259949   24.215008
H   71.229210   97.806572   87.094208
H    1.274179   22.387711   78.756355
H    0.770748   20.786526   65.628334
H   53.707993   74.434418   83.499573
H   77.166679    9.427788   90.089783
H   97.355583   38.553097   28.407230
H   90.006142   53.131664   28.148378
H   98.172455   24.087200   14.036165
H   58.597927   96.145699   98.371498
H   94.887718   33.098507   95.243126
H   58.592270   30.311749   22.000053
H   46.912956    1.203570   95.494293
H   62.968102   89.555496    5.400470
H   57.605942   23.380041   92.016312
H   28.436489    7.056581   28.459446
H   13.824720   14.032701   73.833977
H   91.289230   64.415222   24.551346
H   31.463152   97.885429   55.041573
H   67.836296   48.768322   23.496445
H   99.955673    7.096395   71.332405
H   51.689075   23.251400   72.732574
H    8.527241   48.819016   80.275314
H   92.676498   18.336250   65.985863
H   31.089970   36.114117   56.613411
H   19.150867   34.942589   95.561737
H   36.397377   27.011726   75.836090
H   68.128281   21.204809    8.369118
H   10.785524   66.640747   37.373718
H   24.858355   30.444717   39.320198
H   77.535881   66.822624   62.735470
H   71.025566    0.236082   28.032085
