100
TIME:    3.719, STEP:  3719
H   65.821442   80.970123   95.741165
H   97.818764    6.382271   12.593134
H   43.680969   41.463356   79.686790
H   82.100830   79.426994   36.311878
H   61.860306   70.851753   64.867218
H   70.353645   97.179024   47.051361
H   58.056141   12.461590   81.283577
H   27.580231   10.343293   66.728645
H   62.207817   28.726807   65.990532
H   73.210426   69.782692   53.323570
H   54.322708   15.884287   81.516258
H   13.895668   10.104818   28.206144
H    6.697396   36.702835   55.490028
H   70.937904   93.612862   40.258030
H   25.738445   37.830948   72.004707
H   51.991837   86.451653   24.332022
H   25.047401   27.953808   11.943594
H   80.612633   13.845824   70.612488
H    3.193299   34.370239   59.292049
H   92.323448   26.839193   69.539452
H   43.585983   85.979065   56.300980
H   18.924500   49.021011    2.571083
H   36.090019   64.375832   25.945816
H   73.506096   81.285248   30.868015
H   96.572052   91.223633   64.005470
H   29.604387   16.796213   40.588814
H   41.385387   87.882706   73.762306
H   18.743719   30.030045   89.701500
H   92.036499   86.508957   81.373482
H   43.595673   98.794090   79.038605
H   62.423450   55.544781   15.143501
H    0.577266   49.757912   54.977592
H   32.318447   96.383034   32.833847
H   35.238693   32.898506   15.075661
H   88.326324   77.792168   51.188492
H   95.912971   76.632904    7.849500
H   36.499641   68.337875    1.508078
H   10.279986   90.889885   84.880974
H   88.092133    0.388288   83.913734
H   12.905556   64.023926   30.637087
H   81.084717   83.791504   29.963728
H   97.378586   78.769669   77.523224
H   43.274761   85.801682   70.099998
H   41.875290   75.099548   44.357857
H   34.060184   85.158539   74.355530
H   30.107441   33.851032   98.268623
H   70.789352   27.090134   61.164749
H   56.438030   33.674454   98.688606
H   73.738449   24.442177   96.120850
H    3.876025   87.343254   23.552906
H   43.260883   10.597893   92.629364
H   85.869568   18.643501   29.916500
H   86.018852   43.572754   86.875832
H   90.570732   46.528687   95.926483
H   44.681259   84.510437   31.978018
H   98.219528    8.622259   66.023270
H   32.020206   82.236397    9.695330
H   49.131584   25.674137   17.762249
H   83.586357   95.904968   25.973122
H   13.603934   13.642202   57.833382
H   94.297646    5.622378   24.433605
H   66.920036   93.326157   27.081131
H   26.542814   53.505424   78.447472
H   98.416069   62.024940   26.169109
H   79.936714   63.814777   41.903690
H   72.881142   57.390297   66.080109
H   89.185837   76.936737   46.616070
H   23.469170   30.231405   43.992306
H   42.257278   82.562714   26.983143
H    5.733755   35.197289   93.901978
H    3.936584   42.359398   17.536098
H   67.317612   28.098923   28.909122
H   64.505768   34.349079   66.395744
H   48.343212   14.033325   82.184013
H   41.479160   33.940586   83.323158
H   13.575316   45.926155   45.687626
H    4.615647    4.208012   56.821644
H    6.705714    7.543792   19.825708
H   39.851799   42.594852   59.178383
H   17.138710    6.408504    0.526139
H   83.652664   67.756424    2.265203
H   20.365059   68.515457   75.796875
H   53.100163   69.334381   84.116333
H    6.011904   30.402218   23.743935
H   71.244781   16.258228   87.237152
H   65.702271   45.660126    0.041702
H   15.538336   32.951332    0.879495
H   15.819967    7.542149   57.066528
H   32.864609   87.104561   97.774178
H   37.528934   56.267563   57.160835
H   76.219391   74.245888   12.000283
H   53.463684   75.192924    4.389964
H   23.848957   39.105904    6.600487
H    6.682669   38.817543   77.570992
H   92.290154   16.603840    1.546460
H    1.095714   48.871651   75.357674
H   67.405640   81.106483   23.306314
H   20.517668   47.902740   96.527977
H   31.548698   52.881443   33.531776
H   70.211235   83.197426   39.476845
