100
TIME:    4.395, STEP:  4395
H   20.106293   18.977325   95.122269
H   79.096474   43.022972   55.225563
H   55.300751   90.098305   71.754601
H   82.214294   51.576653   99.257332
H   55.805435   25.036135   46.537567
H   59.871632   96.446663   13.997438
H   22.628792   58.110264   34.147732
H   74.447960   68.824402    4.658947
H   45.590446   63.732056   23.437002
H   54.736366   79.489052   79.793793
H   91.442841   43.084782   16.401188
H   88.095253   43.989174   80.088371
H   63.613083   95.815239   88.312744
H   37.465919   91.529243   91.701019
H   33.961418   77.448395   39.508755
H   24.811283   27.326408   68.217712
H   70.687355   72.664917   73.482536
H   95.053795   80.971474   47.173290
H   13.721981   62.731171   94.908859
H   74.107262   12.483374   15.564615
H    3.471180   18.680912   37.955856
H   83.733276   49.918411   45.003418
H   27.064445   58.877968    6.603349
H   10.698418   89.392792   80.662354
H   72.393829   37.614342   68.997902
H   26.511431   96.726883   77.132072
H   83.093391   59.784031   87.171730
H   61.703518   61.583450   12.045747
H    6.735797   47.840572   49.417793
H   69.517120   82.063255   32.777992
H   89.025993   16.163948   61.660530
H   43.260113   31.082710   92.396904
H   79.935646   46.922890   93.733261
H   63.800766   70.947235   86.597328
H   71.523285   26.691948   92.353821
H   54.687351   29.664341    5.610678
H    1.337111   43.582016   54.774097
H   82.338249   78.522270   32.584385
H   59.560200   85.658623   18.404078
H   49.233170    0.737568   83.824097
H   34.884094    6.988410   45.889996
H   36.623581    9.107236    9.282429
H   49.097546   89.855453   18.929617
H   98.709076   86.425354   10.454919
H   75.421333   58.485168   32.203144
H   21.386158   46.744709    1.013971
H   76.070602   63.852928   67.655098
H   56.474133   40.637039   40.515602
H   93.501877   68.454865   69.157593
H   18.053913   97.627251   76.271706
H   43.209309   45.334862   99.756989
H   18.721189   55.916828   85.538239
H    0.036864   47.492432   47.615009
H   74.912651   35.496857   25.755081
H   90.858185   43.755672   37.728588
H   99.065353    7.910609   43.010635
H   74.874939   62.730843   73.988487
H   98.795059   61.834175    0.349141
H   36.900734   24.468697   74.077354
H   68.992996   65.603561   38.606331
H   36.941071   74.183128   71.726265
H   42.927483   87.034042   96.493301
H   72.437889    7.375871   32.092125
H   44.836594   65.704605    7.813671
H    6.766676    9.822277    4.855979
H   31.353188   23.784218    6.050312
H   34.949875    0.310355   79.252548
H   76.772987   68.891922   76.309013
H   75.949203   33.989655   84.585907
H   19.429419   69.199707   92.478516
H   82.470955   96.363724    9.425976
H   11.579678    5.663398   78.403709
H   20.429346    0.913197   49.062195
H   33.458752   71.256294   42.017632
H   74.070808   34.905033   34.569302
H   29.558123   89.251060    0.202447
H   65.993423   45.617321   68.776665
H   38.465420   63.343662   57.160637
H   72.267815   40.609226   66.721901
H   83.986023   69.594002   42.287987
H   96.876419   74.749954   42.667355
H   71.088066   72.930252   19.270414
H   95.867195   80.619202   48.502071
H   52.518257   88.248482   62.000580
H   38.329803   73.975761   21.706329
H   50.142742   70.491997   46.985413
H   60.686836   83.800613   33.114182
H   26.699652   53.419853   50.036896
H   46.892929   49.465340   92.245369
H   77.761978   28.453323   81.327286
H    3.884143   10.749599   26.276163
H    3.482215   26.027214   17.271460
H   67.181541   59.390236   58.876629
H   72.021866   79.822601   23.151297
H   80.603325   56.053116   17.079384
H   56.930573   22.177532   40.441597
H   13.748137   19.900448   84.428284
H   22.998411   53.658478   85.707603
H   99.345612   55.795414   76.910011
H   12.202118   65.847694   74.356445
