100
TIME:    6.998, STEP:  6998
H   44.075760   80.270790   92.739151
H    7.209155   84.075356   19.351151
H    0.059764   77.368294   41.196156
H   82.651199   44.333405   56.579777
H   32.490601   33.677898   75.960999
H   19.497646   93.626640   71.782242
H   86.204819   33.876232   37.705868
H   69.857292   94.018311   65.661690
H   81.603676   13.464320   59.588917
H   83.619301   16.865908   81.717751
H   49.318115   47.822193   65.665794
H   88.746201   74.464264   94.804237
H   97.510384   38.404423   29.664776
H    8.582367   83.506081   89.790596
H   65.603706   44.936974   14.369488
H   20.149357   99.658203   52.145996
H   61.369576   44.833508   10.443902
H   50.716526   54.316315   56.937630
H   54.259319   71.929367   32.043598
H    3.981163   57.199749   92.789024
H   49.005478   59.545158   67.302605
H   33.285416   53.373932   23.333908
H   92.308815   37.707939   32.130478
H   68.843681   20.544649   87.341293
H   79.295967   31.183685   88.221718
H   14.611111   19.799835   32.339653
H   58.634418   51.579582   38.819714
H   42.070694   83.082695   98.088058
H   63.335655   84.005470   26.372374
H   69.327591   17.639641   39.709129
H   91.470375   49.579384   55.719521
H    7.615295   59.161373   51.424141
H   63.288013   56.475212   28.232061
H   73.783821   32.397690   76.936951
H    6.794842   29.823219   50.816383
H   80.961998   33.542572   97.424995
H   50.997818   48.254028   59.880344
H   74.751076   30.885830   16.271400
H   49.685703   28.940958   66.154129
H    4.060425   57.054699   88.622665
H   56.987717   96.302956    7.215034
H   10.460690   69.045807   37.220455
H   71.512054    5.466854    6.947594
H   32.497646   30.103781   64.962029
H   49.630653   55.784962   54.948063
H   87.793541   96.392990   11.591383
H   96.406540    5.412557   92.638115
H   56.614742   67.447113    1.574503
H   69.586311   52.874844   65.323196
H   72.663818   37.247471   94.231575
H   43.021076   94.031448   27.195618
H   45.230709   14.376244   14.661393
H   54.033146   62.585510   96.435402
H   14.636040   93.022903   40.618057
H   83.603500   71.876884   59.871723
H    2.311760    5.172506   54.398361
H   39.894291   87.621925   21.555611
H    4.970494   16.012667   33.304062
H   42.193993   34.455929   74.247963
H   97.223808   65.678833   64.570824
H    1.139372   53.131073   68.775833
H   50.545235   62.805679   78.717316
H   49.155293   29.752476   53.596588
H   23.579407   79.884155   37.144489
H   10.084594    1.925167   47.262501
H   71.449280   94.382133   59.960220
H   26.106150   90.301544    4.925028
H   96.965874   17.760458    0.747466
H    5.680267   46.954681   21.329830
H   72.161339    0.120058   86.997345
H   99.813408   19.257919   78.204659
H   96.985329   19.255848   68.999580
H   50.708755   72.159546   82.320374
H   76.153831    6.516487   87.356567
H   99.572990   38.619358   31.894657
H   91.093391   56.080013   25.053156
H    2.350260   20.105648   14.851954
H   60.759090   93.138039    0.911789
H   97.093803   32.963390   95.756218
H   56.336349   27.805775   18.037102
H   47.813148    1.679570   98.243652
H   66.419960   89.853806    1.552136
H   60.515686   24.149328   96.396896
H   31.601200   10.992949   24.258198
H   11.584944   11.155156   69.374779
H   90.230759   66.104706   27.745712
H   34.535389   94.540855   57.235023
H   68.576103   45.087185   23.019501
H    0.910387    4.535234   70.956184
H   47.621891   21.358715   74.377136
H   10.409748   51.302704   81.246750
H   96.080032   21.795761   66.862541
H   34.038670   37.494411   60.170662
H   23.596554   37.733360   98.663452
H   35.602119   22.891197   76.893158
H   71.927689   19.388456    5.993084
H    7.134306   69.280609   34.728241
H   24.769564   32.720760   38.396843
H   75.344536   67.021263   58.882366
H   73.883018   99.055527   23.600613
