100
TIME:    5.827, STEP:  5827
H   23.266035   87.656639   93.811234
H   39.546913   20.619833   45.516903
H   79.922501   93.122147   54.945614
H   82.454651   92.577118   20.764790
H   42.979141   39.817169    7.711910
H   37.660511   94.895271   55.814304
H   47.576511   54.805622   46.132069
H   61.895584   92.711868   73.178688
H   10.389153   26.051208   33.297707
H   15.605261    0.050457   35.868351
H   58.241684    0.704752   78.462929
H   33.440826   15.767759   78.157021
H   72.233963    9.219929   46.021660
H   66.562645   87.115425    0.676336
H   51.376335   49.536179   70.675171
H   67.232773    2.078202   49.349335
H   55.534462   67.380272    3.843145
H   25.674467   11.296597   97.532265
H   36.024982   22.802629   70.349777
H   35.527191   82.069618   13.061823
H   18.494270   76.121460   99.089851
H   21.020508   51.819412   23.055374
H    7.944036   47.231606   65.633057
H   77.646156    6.536105   74.310303
H   21.177212   24.049377   79.573586
H   19.983568   54.399818   42.472618
H   59.611076    0.254444   15.582367
H   40.876369   28.424355   59.384811
H   37.873695   77.763123   81.727112
H   24.425961   46.621605   46.618088
H   45.385086   44.573681   48.365242
H   33.677464   91.519058   59.829475
H   80.803581   42.150902   22.739134
H   24.306519   39.712883   26.268381
H   35.928680   18.443056   79.551498
H   79.168900   41.824669    1.106362
H   38.684181   91.137329   67.610146
H   23.152554   52.318546   33.636639
H   99.111298   54.455986   79.632866
H   14.355520   66.679939   96.490379
H   37.016998   56.119484   79.627296
H    9.146203   64.453720   77.437279
H   61.432201   98.442734   22.364719
H    7.270902   10.448935   50.468666
H   51.206104    1.989825   54.742657
H    2.908900   74.057938    6.834017
H   87.258102   41.730545   81.399117
H   56.550610   55.386185   29.119635
H   35.358620   49.857018   12.031941
H   48.087543   19.422018   76.115524
H   43.101482    7.083984   14.853061
H   88.314262   23.037056   91.529671
H   29.741543   55.795654   64.447502
H   41.750793   12.128108   88.946434
H   76.840385   69.256195   49.910290
H    0.853267    6.404284   94.261963
H   65.656898   21.411385   10.183683
H   92.165436   26.599627   63.465317
H   49.839157   84.973824   64.142403
H   74.496155   75.671234   97.876854
H   27.272560    7.590143   60.076031
H   92.106300   73.705185   31.700867
H   69.656563    9.658764   33.895569
H   43.169487   73.505264   68.939285
H   63.608582   95.451065   38.212528
H   43.384056   52.595604   90.721046
H   20.057476   49.815693   48.390213
H   77.854942   50.789951   44.766895
H   47.319965   31.095268   94.772675
H   48.438438   41.223526   89.463135
H   36.999886   98.931519   92.248940
H   93.504593   58.138199   83.247849
H   27.060394   30.078972   12.342285
H    1.936788   80.627708   56.932793
H   43.113895   36.948063   43.124527
H   63.415604   81.029350    3.846900
H   96.008507   21.500086   94.101494
H    5.743388   69.708290   36.243408
H   40.938213   36.402988   82.694679
H   13.763573   91.594978   18.919781
H   24.897387   89.564651   28.254774
H   78.544037   82.259750   99.511986
H   86.445473    4.567062   84.877625
H   51.037392   10.787889   31.210629
H   68.602577   84.402855   82.890152
H   17.181133   23.088757   46.427841
H   56.326881   79.682411    1.397281
H   49.743187   38.791172   35.160835
H   76.609726   69.734230   80.533455
H   51.154102   69.538864   32.519035
H   62.487511   88.072800   56.517376
H    9.437891   33.724976   44.553146
H   58.975388    2.356934   69.615433
H   10.425037   66.690498   19.704576
H   55.846611   27.782398   49.983891
H   75.207886   65.629730   66.476776
H    0.082875    2.080430    2.072963
H   27.029871   74.777405   61.902252
H   31.128082   61.968204   56.965691
H    1.149501   29.104958   36.407391
