100
TIME:    4.419, STEP:  4419
H   18.483337   16.776398   95.100296
H   78.433632   44.323570   56.738930
H   55.713287   91.824989   71.472984
H   82.218323   50.587883   97.941902
H   55.590469   26.959841   45.886810
H   59.499378   96.420662   16.374277
H   21.370949   59.730930   36.024563
H   72.561607   70.900818    2.455318
H   45.000481   61.424561   21.926291
H   54.080482   79.833656   80.733490
H   89.210419   44.050480   14.089390
H   87.179359   45.192177   78.379997
H   62.081589   94.363945   85.927979
H   36.277565   91.455269   93.527313
H   34.253288   75.304596   38.355007
H   23.846226   25.227287   66.225525
H   68.757423   74.252441   75.667351
H   95.566856   79.803627   46.341259
H   14.095791   63.738068   96.173386
H   73.460533   11.973700   17.198648
H    2.046998   16.291569   37.304550
H   86.034180   49.950272   42.959595
H   26.744011   58.682777    5.916657
H    8.468559   89.680634   78.880005
H   71.535431   35.710960   69.175148
H   26.402025   96.017532   74.875114
H   81.023933   58.786289   87.647804
H   59.678555   62.703690   12.839097
H    7.257693   50.018063   48.283272
H   70.437408   81.469261   34.685951
H   89.970451   18.316078   59.761726
H   44.775494   30.419685   90.175102
H   81.626076   45.166908   95.895370
H   64.814804   68.747772   85.586220
H   70.926727   24.877739   93.815369
H   56.773655   31.544102    5.535170
H    3.638999   42.703110   56.665211
H   81.346184   78.083183   34.277927
H   58.547077   85.135674   16.078363
H   46.972733   98.490822   85.712280
H   33.243835    7.811859   46.455425
H   34.466599   10.184400   10.409946
H   49.304272   89.999374   20.663168
H   97.176483   86.827454   12.801507
H   73.339424   57.538330   34.256855
H   21.076527   47.202473    1.111538
H   76.258102   65.158104   67.885445
H   56.475414   40.884232   42.000587
H   94.203537   66.467072   68.200317
H   18.557270   97.992363   74.592995
H   43.207478   43.017845    0.010040
H   19.887480   53.689716   83.962799
H    0.534694   47.631592   46.221027
H   74.356743   35.105194   26.814072
H   88.947296   45.859005   37.932751
H   99.095383    7.885364   42.193619
H   76.396545   62.038338   76.271080
H   97.007950   59.567696   99.730942
H   38.793495   25.482826   72.234947
H   67.409134   67.448166   37.923714
H   38.454987   73.066917   69.854927
H   42.075676   86.810654   95.407486
H   74.067162    5.738130   30.446373
H   46.484726   65.835342    7.161999
H    7.719305    7.905436    7.091056
H   29.878822   22.591103    7.469333
H   33.024338    1.140071   80.411240
H   75.115150   70.264481   77.456352
H   77.145248   32.265167   83.080780
H   19.915655   70.406738   92.427979
H   81.708870   94.730789    9.138042
H    9.600811    4.866867   80.160789
H   18.864435   99.726082   48.446777
H   32.930309   69.737617   40.591606
H   75.228035   34.939274   36.388638
H   30.125566   90.789146   98.587479
H   68.172379   43.537060   69.201103
H   39.592983   61.774265   58.486137
H   73.418816   40.538731   66.989601
H   82.809021   68.286995   40.220360
H   97.345901   74.998245   44.101803
H   72.888725   73.086990   17.263487
H   97.385139   81.020569   50.787777
H   54.169319   90.302193   59.808624
H   37.161224   72.474663   19.379791
H   49.590313   71.373466   48.652039
H   62.289742   82.055618   34.258591
H   27.085913   51.498344   49.787323
H   47.390976   48.129036   92.049080
H   75.640152   27.465836   82.185318
H    4.866343   12.045528   26.782999
H    5.258129   27.832085   17.728765
H   68.719994   60.110390   60.732586
H   74.341446   81.278290   24.769491
H   80.188408   53.903275   17.630806
H   58.912872   21.229870   39.201973
H   11.843154   21.277767   83.048035
H   23.086485   53.862823   85.323448
H   98.202301   55.898869   74.899879
H   13.692825   65.231728   72.044556
