100
TIME:    8.501, STEP:  8501
H   42.433830   42.438774   91.363113
H   65.699509   65.522430   14.119853
H   25.895304   85.500244   23.551220
H   82.903473   82.408745   74.194893
H   19.022840   54.149891   35.207352
H   96.189087   91.998329   20.628170
H    7.433414   35.366371   55.242435
H   51.724457   24.046686   27.660042
H   44.657066   68.956161   64.980957
H   42.567513   38.446766   40.569252
H    9.512711    8.298802   20.890505
H   31.381844   49.801723   87.818932
H    1.669013   47.431839   80.300842
H   34.162025   78.873421    4.169041
H   83.859138   10.681595   42.087250
H   59.716599   68.200401   27.383850
H   40.507240   44.245266   47.267921
H   82.851746   81.180397    4.840676
H   77.670120   34.981007   11.228419
H   63.481060   25.285936   95.120247
H   59.815331    9.915348   26.512857
H   77.379494   55.369186   95.339630
H   72.241600   25.487196   89.126099
H   29.192095   38.524872   75.716461
H   25.539455   11.987885   99.321754
H    7.524221   75.494003   90.900131
H   29.027857   89.100357   68.643539
H   15.252289   53.237644   47.771271
H   96.016548   20.369230   55.324944
H   26.958698   80.439529   59.193604
H   50.624508   84.356682   36.807014
H    2.515726   17.639439   12.283882
H   69.156876   46.508446   63.634171
H   37.290131   94.656860   13.617952
H   69.389275   16.024986   42.260624
H   11.615126   51.266045   92.700600
H   95.155754   93.209236   78.310936
H   12.630829    3.377845   22.333504
H   86.241966   96.196312   20.502201
H   62.493317   16.347937    6.875149
H   54.268188   47.870972   42.624355
H   83.795853   74.939835   13.952321
H   84.446808   14.482767   15.509953
H   36.526287   55.334663   11.917949
H   19.257351   96.489845   83.564507
H   68.391411   25.055752   17.697550
H    8.153956   87.151009    7.067847
H   56.706478   82.927536   94.571281
H   13.524498   28.397392    5.364649
H    4.219791   60.124096   89.142601
H   42.917873   48.927025   43.041245
H   18.277330   74.909775   15.998521
H   85.204063   71.300415    9.147249
H   79.827118   68.506500    6.942481
H   63.932655    3.591369   72.649643
H    4.183744    3.591496    3.232697
H   35.178215   44.253807   64.503288
H   93.054138   74.072594   94.587914
H   60.731884   97.965401   58.865105
H   98.041374   81.203461   21.821922
H   95.949783   83.235107   51.590397
H   97.200798   48.815964   10.710711
H   51.194195   27.190313   50.531372
H   26.787846   88.071579   96.335388
H   69.744080   81.883545   87.229767
H   79.119118   19.663292   48.829823
H    5.516988   42.263432   77.490158
H   93.143402    3.718103   72.599564
H   80.591156   38.958687   27.064629
H    2.675684   75.626663   83.813126
H   52.084972   16.992245   60.178566
H   73.229935   69.333397   79.165390
H   52.710266   97.817711   43.785175
H   43.067387   11.392002   98.053658
H   71.972977   40.832485   45.853123
H   26.625643   52.408035   23.920263
H   38.855301   90.016968   41.508995
H   31.369726   94.865211   83.923584
H   69.165581   28.548603   12.527405
H   82.628593   45.930016   88.552544
H   77.236443   17.229105   88.076096
H   79.203995   99.600739   75.809776
H   55.582428   49.284946   39.535648
H   35.004745   39.608498   86.982384
H   38.402679   17.132694   23.676605
H   55.643574   21.308964   32.118576
H   34.917423   85.260201   28.903770
H   92.748497   24.815331    7.435823
H   32.105961   20.850168   58.663582
H   14.735936   59.523964   28.107756
H   71.918633   32.460148   12.987693
H    7.286814   34.835434   95.507057
H   30.383869   82.589317   76.399963
H   68.853531   28.918690    0.008217
H    9.613003   88.261612   11.430748
H   96.069305   60.036621   28.361412
H   87.833183   55.533638   48.288551
H   21.868418    7.090114    8.222700
H    3.745119   73.511574   32.989689
H   67.239777   60.481655   78.812134
