100
TIME:    6.973, STEP:  6973
H   45.766434   82.563423   92.762039
H    7.899544   82.720757   17.774822
H   99.629868   75.569664   41.489697
H   82.647003   45.363373   57.950207
H   32.714523   31.674040   76.638870
H   19.885410   93.653725   69.306503
H   87.515167   32.188038   35.750835
H   71.822243   91.855377   67.956993
H   82.218224   15.868009   61.162670
H   84.302132   16.506945   80.738899
H   51.643555   46.816257   68.074013
H   89.700256   73.211136   96.583794
H   99.105110   39.917011   32.149101
H    9.820189   83.583138   87.888206
H   65.300056   47.170097   15.571690
H   21.154625    1.844822   54.221191
H   63.379921   43.180027    8.168054
H   50.181896   55.532822   57.804138
H   53.870029   70.880707   30.726574
H    4.654648   57.730564   91.086906
H   50.489014   62.034058   67.981239
H   30.888641   53.340744   25.462891
H   92.642601   37.911263   32.845734
H   71.166451   20.245577   89.197906
H   80.190132   33.166374   88.037086
H   14.728985   20.536739   34.692368
H   60.790295   52.618896   38.323612
H   44.180031   81.915779   97.261795
H   62.792061   81.737251   27.554071
H   68.368958   18.258385   37.721672
H   90.486565   47.337677   57.697441
H    6.036798   59.852024   53.738518
H   61.526958   58.304359   25.979864
H   72.727531   34.688797   77.990189
H    7.417043   31.716072   49.295273
H   78.788765   31.584469   97.503578
H   48.600090   49.169556   57.910435
H   75.784477   31.343403   14.507293
H   50.741039   29.485601   68.576843
H    6.415142   59.395206   86.655807
H   58.696320   95.445030    6.626092
H   12.567595   68.947769   35.944248
H   71.296906    5.316889    5.141859
H   34.093906   29.684164   62.517685
H   51.799118   56.771252   52.808781
H   88.116264   95.916153   11.489817
H   96.211227    4.052927   92.398170
H   56.613216   67.189621    0.027679
H   68.855415   54.945271   66.320358
H   72.138916   36.866955   95.979469
H   43.022793   96.445007   26.932117
H   44.015537   16.696152   16.302437
H   53.514538   62.440552   97.887276
H   15.214920   93.430695   39.514847
H   85.594009   69.686104   59.659054
H    2.280622    5.198804   55.249420
H   38.309475   88.343285   19.177910
H    6.832019   18.373678   33.947983
H   40.222366   33.399448   76.167137
H   98.873665   63.757343   65.281883
H   99.562340   54.293602   70.725143
H   51.432533   63.038376   79.848373
H   47.457943   31.458504   55.310913
H   21.862698   79.747971   37.823315
H    9.092296    3.921898   44.934391
H   72.985077   95.624962   58.482025
H   28.112013   89.437134    3.717984
H   98.692787   16.330614   99.552322
H    4.434220   48.751022   22.897861
H   71.654747   98.862724   87.049988
H    0.607299   20.958893   78.504494
H   99.042595   20.087738   67.167381
H   52.338776   73.395889   82.961243
H   76.704292    8.098705   88.842010
H   98.368156   38.583057   29.999229
H   90.502495   54.477650   26.735342
H    0.079681   22.269535   14.408590
H   59.584545   94.772636   99.531151
H   95.894844   33.036823   95.477364
H   57.562393   29.167717   20.190880
H   47.323914    1.420874   96.749435
H   64.543892   89.691681    3.643625
H   58.934303   23.731237   94.016144
H   29.881248    8.853619   26.541485
H   12.802214   12.719039   71.798256
H   90.806015   65.186508   26.009644
H   32.865696   96.358559   56.042931
H   68.174034   47.087803   23.278709
H    0.391517    5.927170   71.160652
H   49.832317   22.387348   73.483353
H    9.386646   49.952873   80.718796
H   94.230286   19.915592   66.386086
H   32.436115   36.744251   58.237373
H   21.180420   36.216637   96.977737
H   36.034325   25.130615   76.318665
H   69.862793   20.375605    7.284407
H    9.118664   67.845901   36.166000
H   24.817820   31.483807   38.898666
H   76.535484   66.913307   60.976444
H   72.330055   99.697159   26.009022
