100
TIME:    3.680, STEP:  3680
H   68.458893   84.546631   95.776871
H   98.903618    4.267720   10.133095
H   43.010597   38.657494   80.144417
H   82.094284   81.033745   38.449749
H   62.209625   67.725731   65.924698
H   70.958260   97.221275   43.188911
H   60.099987    9.828081   78.233727
H   30.645554    6.969351   70.309319
H   63.166512   32.476486   68.445290
H   74.276237   69.222710   51.796265
H   57.950394   14.315102   85.273079
H   15.384293    8.150013   30.982103
H    9.178134   39.062378   59.366165
H   72.868980   93.733070   37.290005
H   25.264008   41.314621   73.879250
H   53.559906   89.862724   27.569475
H   28.183540   25.374378    8.393270
H   79.779503   15.742459   71.964539
H    2.585896   32.734032   57.237492
H   93.374382   27.667414   66.884148
H   45.900299   89.861450   57.359352
H   15.185532   48.969238    5.892266
H   36.610725   64.693016   27.061764
H   77.129616   80.817505   33.764629
H   97.966949   94.316330   63.717445
H   29.783361   17.958281   44.244171
H   44.748554   89.503738   72.988686
H   22.034433   28.209656   88.412529
H   91.188492   82.970535   83.217079
H   42.100204   99.759331   75.938171
H   60.888409   52.047718   18.229057
H   98.114784   50.835327   58.588020
H   29.571333   99.236504   29.320417
H   33.590881   36.472633   16.718563
H   89.295731   80.740257   48.813774
H   92.521538   73.569366    7.984102
H   32.759186   69.766098   98.435051
H   11.891870   91.603401   82.128670
H   89.738159    1.237932   87.693169
H   16.578915   67.674820   27.568640
H   83.750137   82.453140   29.044905
H    0.883689   77.019501   75.690933
H   42.938831   85.567810   67.282829
H   44.365753   74.446136   40.544800
H   37.442989   86.697449   71.018250
H   30.610592   33.107166   98.110329
H   70.484665   24.969074   60.790138
H   56.435947   33.272766   96.275505
H   72.598251   27.672043   97.676422
H    3.058070   86.749947   26.280514
H   43.263859   14.363194   92.218155
H   83.974197   22.262409   32.476887
H   85.210121   43.346619   89.140755
H   91.474083   47.165138   94.205475
H   47.786453   81.092224   31.646402
H   98.170731    8.663321   67.350922
H   29.547892   83.361717    5.986042
H   52.035637   29.357315   18.766914
H   80.510323   94.257156   28.967182
H   16.177483   10.644423   58.942635
H   91.837532    7.435998   27.474232
H   68.304222   93.689163   28.845879
H   23.895098   56.166679   81.121819
H   95.738152   61.812790   27.228077
H   78.388878   66.929512   38.271839
H   75.276985   59.329109   63.774124
H   92.314835   75.588257   44.733196
H   26.163155   28.000849   42.127880
H   40.313408   85.365005   29.429272
H    4.943621   33.235565   93.984100
H    5.175047   45.012917   18.003990
H   70.533493   29.393250   26.053719
H   67.048599   36.278072   67.395500
H   49.201931   16.501324   84.501305
H   39.598965   33.884945   80.366737
H   12.653295   43.426468   48.311687
H    1.074672    7.588287   56.131931
H    4.873423   10.093920   17.671770
H   37.981720   42.709408   58.743073
H   19.051338    8.532539    3.885981
H   82.889755   67.352951   99.934311
H   17.438690   68.260757   79.057983
H   50.632610   68.683350   80.401764
H    3.328779   27.064789   27.305862
H   73.143723   18.697811   91.017776
H   66.599670   44.227440   97.333435
H   12.933615   35.786949   99.019806
H   15.192293   10.664526   57.472084
H   32.055283   89.276054   98.093147
H   40.977200   57.872231   55.766830
H   74.623352   72.139854   11.176675
H   50.577782   72.260307    3.646796
H   21.349121   37.935654    3.584522
H    2.913097   36.451752   74.941277
H   92.964394   20.097332    0.650327
H   97.874466   50.411751   77.372063
H   70.501312   78.868340   25.549368
H   20.374548   47.570679   97.152229
H   33.406578   52.713329   36.798538
H   67.788612   84.198372   43.233963
