100
TIME:    9.152, STEP:  9152
H   98.410065   82.739693   90.767105
H   47.719925    0.796281   55.168842
H   37.085361   32.334892   15.909882
H   83.012741   55.588371   38.510315
H   13.189409    6.330350   17.557606
H   86.096680   91.293053   85.099304
H   73.312614   79.325218    6.151501
H    0.557143   80.365952   67.888374
H   28.654243    6.364513   24.001024
H   24.785589   47.794163   66.058540
H   48.958282   34.491486   58.181267
H    6.533264   82.433174   41.479286
H   60.156998    8.030472   15.607227
H    1.929685   76.866859   53.712231
H   91.766182   52.531075   10.781914
H   33.541901   11.261638   73.344788
H   88.157539   87.304588    6.531019
H   96.775589   49.502556   82.272537
H   87.812195   62.293087   45.523731
H   45.943516   11.461027   39.443291
H   21.184059   45.107224    8.843437
H   39.791500   56.233398   39.900925
H   63.549812   20.195139   70.500839
H   68.705963   46.312714   27.366728
H    2.257171   60.362122    4.127616
H    4.453537   56.302536   29.637720
H   72.892509   62.041218   81.557053
H   60.321564   83.624130   69.290916
H   10.172368   79.433159   24.551651
H   51.921013   64.327438   10.946545
H   76.245522   42.733150   85.301987
H   43.620106   99.653961   52.017586
H   15.010998   98.879028   22.281393
H   64.795914   34.996429   86.192726
H   53.187782   66.735176   81.868103
H   68.205215    2.255918   90.654305
H   57.594170   69.368904   29.607016
H   85.722771   91.466469   68.271309
H   58.765034   82.011314   57.415512
H    1.177728   55.404396   58.095879
H    9.777411   70.207764   57.961636
H   28.933289   77.492737   47.186100
H   90.049286   18.388622   62.530056
H   94.960365   66.265419   75.567574
H   62.786606   70.811821   39.273754
H   59.990067   37.471203   20.342337
H   13.243619   22.555513   13.319633
H   56.746212   89.632629   34.851048
H   32.552063   74.481056   79.397827
H   17.884352   70.035759   43.625210
H   42.873173   86.076683   49.905273
H   49.916515   14.500984   73.264168
H   98.703651   75.075134   71.339859
H   64.748108   57.884758   35.667915
H   12.098846   60.643295   78.182587
H    4.994564    2.906708   81.071106
H   76.448318   25.469612   26.418921
H   44.578796   12.593554   77.820213
H   12.077484   25.473658    8.885992
H   55.080143   31.241375    3.305931
H   37.016819   52.959698    0.835300
H   74.095543   42.756546   81.256645
H   95.389648   82.766747    5.890350
H   71.492310   91.617828   78.663742
H   95.581039   29.888493   47.854801
H   39.126961   87.300652   87.322029
H   53.286575   64.767883    8.920246
H   48.174576   40.950569    3.721130
H   13.035492   92.181992   86.235229
H   15.897353    8.326698   82.432373
H   31.408524   72.697578   52.370857
H   19.622526   47.718163   26.884060
H   10.264374   65.613396   27.091976
H   28.738354   70.188759   59.372719
H    3.332691   41.791065   95.212540
H   42.017555   94.129997   80.115372
H   97.979324   33.671642   53.056656
H   61.949970   52.300285   19.880142
H    0.386432   26.636410   19.793146
H   50.702415   10.466208   32.468163
H   89.981087   23.963999   26.985985
H   28.055080    3.826397   21.347956
H   96.757683   60.172031    1.532509
H   79.791557   95.315407   27.523670
H    6.704971   76.407089   60.569885
H   40.658932   45.222687   77.325806
H   78.396233   37.927208   59.945869
H    3.218118   72.723305    0.686014
H   45.615482   84.603844   53.339241
H   57.179874   32.738358   51.377327
H   98.560204   67.610245   26.735619
H   55.454220   83.797516    7.911099
H   72.114380    2.119039   26.742792
H   31.770811   68.414169   43.902843
H   98.356674   29.949230   26.388453
H   49.839279   34.328796   94.736023
H   36.159264   92.893425   10.848064
H   20.611834   39.301296   95.151817
H   72.732903   76.322746   78.461876
H    7.678235   43.778522   16.098331
