100
TIME:    3.171, STEP:  3171
H    2.880894   31.224388   96.242874
H   13.062992   76.672180   78.025742
H   34.261383    2.038964   86.117027
H   82.008850    2.004080   66.351379
H   66.768692   26.927135   79.726166
H   78.849251   97.772713   92.780479
H   86.778114   75.459389   38.429268
H   70.651947   62.932636   17.042782
H   75.678703   81.414612    0.483069
H   88.186440   61.914223   31.862970
H    5.296326   93.834778   34.302937
H   34.812752   82.636627   67.213814
H   41.554886   69.857437    9.957727
H   98.071999   95.301949   98.553642
H   19.071987   86.781021   98.344429
H   74.025223   34.381927   69.820656
H   69.114174   91.708115   62.056988
H   68.906090   40.495018   89.610535
H   94.656837   11.379428   30.422876
H    7.088402   38.475590   32.229027
H   76.105087   40.534607   71.174484
H   66.387207   48.293533   49.238327
H   43.406609   68.832680   41.625031
H   24.421280   74.712860   71.568382
H   16.171238   34.683334   59.958351
H   32.119106   33.124607   91.953545
H   88.640015   10.661614   62.891521
H   64.981071    4.451248   71.589806
H   80.120911   36.789597    7.277915
H   22.583366   12.357888   35.473541
H   40.854145    6.405680   58.499519
H   65.976082   64.897224    5.708695
H   93.718109   36.476372   83.465675
H   12.083203   83.119576   38.161102
H    1.947926   19.217010   17.820663
H   48.260586   33.583317    9.739675
H   83.938972   88.406235   58.327694
H   32.928230    0.916054   46.209499
H   11.222575   12.326872   37.018433
H   64.519684   15.324603   87.522072
H   18.536364   64.985779   17.053083
H   46.629753   54.175896   51.777191
H   38.554516   82.515488   30.518616
H   76.869492   65.918274   90.777550
H   81.594475    6.781174   27.462255
H   37.177357   23.398762   96.044380
H   66.508102   97.286835   55.900986
H   56.408764   28.031698   64.781441
H   57.718849   69.826469   17.981077
H   92.385490   79.006523   61.879292
H   43.302692   63.503952   86.851349
H   59.237186   69.494888   65.892998
H   74.655144   40.395264   18.702160
H    3.262897   55.471649   71.744110
H   88.313217   36.482559   27.318396
H   97.533859    9.199224   84.678482
H   97.280235   98.048592   57.575951
H   89.937248   77.425674   31.879086
H   40.366417   72.751099   68.044899
H   49.764679   71.522385   73.419807
H   59.729897   31.106174   67.158615
H   86.369621   98.426865   51.878098
H   89.339577   90.899467   16.025497
H   60.787537   59.043953   41.048962
H   58.186512    7.581000   90.870216
H    6.545689   84.633095   33.678070
H   33.153725   57.990185   20.158346
H   61.323112   98.889404   17.794737
H   14.943445   21.938484   61.354389
H   94.630432    7.634099   95.055908
H   21.338890   79.644737   24.110577
H   12.504069   46.285873   88.787598
H    0.235822   61.453907   80.443596
H   60.408504   48.712875   14.746590
H   15.058698   33.158756   41.781651
H    0.619496   10.803606   82.561157
H   54.861851   51.706085   47.130299
H   80.959671   43.376934   89.562012
H   13.574693   44.204502   53.061714
H   44.013588   36.254215   47.736679
H   72.932816   62.087109   69.512054
H   79.248322   64.936600   21.620596
H   18.427893   60.186554   31.921879
H   68.308807   83.508148   73.794403
H   97.927338   50.537495   40.359474
H   78.311890   25.529724   61.987072
H   78.938637   72.795387   74.748795
H    7.000341   51.416397   62.765106
H   21.490608   17.616137    2.256849
H   85.979584   78.812454   37.573280
H   53.792999   44.656155    0.427452
H   12.913958   33.982849   93.946632
H   88.721939   22.662390   64.222740
H   53.717670    5.576767   40.622772
H    1.764410   65.691742   88.953697
H   55.833191   70.512032    3.662554
H   10.903525   49.657696   54.822578
H   18.506651   43.236847    5.297651
H   57.654289   50.519230   79.432564
H   36.173702   97.262001   92.266937
