100
TIME:    4.783, STEP:  4783
H   93.868080   83.395912   94.767044
H   68.380531   64.049301   79.689758
H   61.970093   18.012108   67.201805
H   82.279419   35.591545   77.991219
H   52.330154   56.136047   36.016998
H   53.853535   96.026314   52.423206
H    2.294059   84.308746   64.489838
H   43.951927    2.392960   69.035545
H   36.052666   26.427551   99.013405
H   44.132912   85.060158   94.985565
H   55.352020   58.696903   79.026306
H   73.288307   63.437721   52.469658
H   38.853928   72.352654   49.759033
H   18.255249   90.333321   21.228205
H   38.679985   42.790314   20.857388
H    9.209522   93.390274   36.010681
H   39.486794   98.329895    8.803709
H    3.349261   62.091587   33.722118
H   19.765240   79.006607   15.349924
H   63.651917    4.243643   41.981483
H   80.446724   80.054779   27.425762
H   20.931213   50.433487   11.961609
H   21.884087   55.722389   95.502136
H   74.648956   94.046234   51.846466
H   58.516388    6.843010   71.863380
H   24.742708   85.259048   40.646481
H   49.635880   43.653873   94.868263
H   28.966473   79.693985   24.872087
H   15.173121   83.043327   31.076439
H   84.395111   72.460350   63.623329
H    4.295316   50.955914   30.963203
H   67.758766   20.363808   56.477776
H    7.264847   18.535227   28.687368
H   80.194382   35.389252   70.251076
H   61.878937   97.361832   15.980186
H   88.415924   60.053806    4.389963
H   38.551003   29.372757   85.347092
H   66.299858   71.423698   59.963322
H   43.181385   77.204277   80.804214
H   12.688654   64.415810   14.350431
H    8.367897   20.300482   55.031109
H    1.751728   26.521029   27.509317
H   52.439617   92.182175   46.954567
H   73.932159   92.925964   48.392067
H   41.765759   43.177948   65.404808
H   16.380451   54.145222    2.591264
H   79.101852   84.953270   71.379036
H   56.494854   44.633316   64.522865
H    4.844265   36.321430   53.679665
H   26.191517    3.531668   49.134171
H   43.179707    7.875473    3.847300
H   37.576653   19.912352   60.068176
H    8.085196   49.742188   25.079424
H   65.925468   29.164978   42.876366
H   59.965485   77.760750   41.029217
H   99.550827    7.502471   29.802200
H   99.474243   51.535347   10.890606
H   69.903458   25.192480   90.355453
H   67.500710   40.862991   44.289810
H   43.389606   95.424667   27.570686
H   61.416046   56.139011   41.475174
H   29.156916   83.422592   78.939285
H   98.777794   80.899582    5.485802
H   71.480568   67.818192   97.279068
H   22.167173   78.834290   40.989353
H    7.518505    4.495949   28.991613
H    3.819066   13.723987   97.984726
H   49.971291   91.081619   94.857658
H   95.285263    6.110443   60.252563
H   27.290243   88.713379   91.661499
H   70.150581   69.964615    4.771310
H   79.586517   92.786331    6.810218
H   95.130325   81.719368   39.112946
H   24.916111   46.702267   18.963802
H   92.779305   35.458591   63.981899
H   38.731796   14.117743   74.093460
H    1.219922   11.987312   75.638420
H   56.694363   37.971745   78.587547
H   90.875664   39.469547   71.049721
H   64.957825   48.461880    8.861509
H    4.467887   78.763992   65.857597
H    0.198735   75.464188   86.825706
H   20.409639   87.107971   85.452591
H   79.212112   21.450747   26.563965
H   19.436789   49.706253   84.094261
H   41.211803   84.742424   73.929199
H   86.600471   55.589859   51.615463
H   32.944427   22.355921   46.002136
H   54.944687   27.862047   89.072029
H   43.457348   12.488937   95.198807
H   19.762779   31.700451   34.470013
H   32.192463   55.206451   24.664320
H   92.053185   71.034508   88.881271
H    9.522368    3.356470   49.311131
H   73.895500   21.297348   25.994041
H   88.977753    6.856576   20.401009
H   82.950493   42.167110   62.114258
H   24.422270   56.962067   79.497093
H   80.862091   57.467930   44.411095
H   36.301266   55.891979   36.978756
