100
TIME:    2.131, STEP:  2131
H   73.211578   26.597672   97.195023
H   41.992638   20.283800   12.422829
H   16.384794   27.216316   98.320396
H   81.834290   44.853539   23.355412
H   76.083878   43.566563    7.925068
H   94.972298   98.899422   89.785759
H   41.284489    5.232068   57.099831
H   52.393898   72.959869   12.532085
H    1.243904   81.406372   65.949532
H   16.605749   46.981361   91.136711
H    2.034602   51.987858   34.480991
H   74.507309   30.506502   41.241722
H    7.710052   32.779060   13.325178
H   49.566750   98.507515   19.409771
H    6.420438   79.677856   48.337860
H   15.841759   25.344185   56.150162
H   52.738235   22.923439   67.375412
H   46.683113   91.069969   25.668049
H   78.454445   67.753265   75.631027
H   35.105370   60.557499   61.421028
H   37.820068   44.070004   99.405685
H   66.681396   46.912918   37.803925
H   57.292107   77.290932   71.379669
H   21.048561   62.239719   48.808174
H   53.366814   17.166656   52.284813
H   36.887783   64.109131   89.433495
H   78.320793   53.895374   42.253704
H   52.733734   55.907589   37.211063
H   57.507385   42.432716   56.438530
H   82.705711   38.097916   52.796780
H   99.929237   13.143343   40.785351
H    0.309962   93.636238    1.986738
H   20.462063   12.568344   89.774261
H   68.140999   78.429367   81.975800
H   27.801838   97.832733   54.490334
H   57.836834   51.886021   13.314198
H   84.189453   26.494886   76.379822
H   75.911995   19.950733   72.819389
H   55.124336   34.984558   37.802147
H   62.476101   12.685859    5.696402
H   89.611214   29.303499   92.549973
H   40.099060    7.497169    2.918032
H   29.596388   76.278915   55.396896
H   43.280052   48.486893   89.091843
H   71.806313   47.811283   38.466438
H   50.594715    3.562336   91.823189
H   58.377621   40.729218   45.911362
H   56.353222   17.323996    0.432164
H   27.321508   55.959080   59.469604
H   70.581291   63.184582   34.619503
H   43.382038   63.909248   75.885773
H    8.695803   65.999161   34.165920
H   53.084969   34.364990   79.105186
H   27.344318   72.439751   25.851088
H   71.112106   45.320103   18.488661
H   96.232590   10.292370   20.082535
H   31.347887   28.058128   58.663292
H   67.378265   75.640839   58.666214
H   58.343254   28.809156   47.885712
H   18.395306   91.583176    2.999719
H   94.125412   79.469917   48.245586
H   23.278740    8.108688   98.932144
H   18.776840   61.835136   87.363205
H   89.371338   53.386604   69.286613
H   16.904392   90.644501   94.016922
H   70.434578   36.334633   72.186699
H   16.594435   22.037546   69.946915
H   33.163155   39.411865   68.076721
H   63.112862   96.666267   26.579651
H   73.556213   55.327370   97.245850
H   54.363853   50.406609   36.589146
H   98.256958   80.801254   12.643122
H   68.046432   12.899281    7.105801
H   83.293053   14.525241   76.556892
H   64.913841   31.675859   62.942242
H   76.038033   44.150093   52.539562
H   60.436836   41.846176   28.737261
H   32.098583   11.379362   32.127186
H   63.699768   47.259312   41.453438
H   95.017006   92.895065   37.333565
H   52.584126   51.327831    7.353930
H    1.213747   58.144608    8.584333
H   52.631306   42.825714   32.867008
H   96.763008   94.514015   68.786560
H   48.567764   15.588209   41.175827
H    2.243208   87.330009   89.766258
H    9.479406   48.411865   25.157728
H   90.260056   34.681412   73.586952
H   99.905708   75.521645   10.765362
H   77.929855   21.599663    0.397122
H   11.231964   88.499420   78.464554
H   35.960613   55.775829   74.126076
H   22.012852   91.485031   83.774948
H   53.197704   42.493824   70.499931
H   19.747772   58.848526   65.054771
H   69.933441   11.580793   57.380051
H   93.453903   89.974358   14.633759
H   14.689443   34.381866   21.939137
H    7.197458   46.036198   66.545761
H   71.583633   23.966393   92.439728
