100
TIME:    2.437, STEP:  2437
H   52.517731   98.536095   96.914871
H   33.480705   36.874939   31.725149
H   21.644636   49.231293   94.729790
H   81.885651   32.246727    6.582212
H   73.343063   68.093811   99.628479
H   90.228401   98.567909   20.089872
H   25.247665   25.895302   81.029427
H   28.342903   99.434174   84.436790
H   93.721825   51.985809   46.687023
H    8.244398   51.375069    3.118405
H   73.571228   64.300507    5.005663
H   62.829430   45.844788   19.460627
H   88.244789   14.265669   82.910789
H   34.415230   97.564339   42.697353
H   10.142826   52.344421   33.627579
H    3.537377   98.580048   30.749712
H   28.136276   43.159706   95.236465
H   53.222313   76.189262   15.058483
H   83.221687   80.588867   91.753738
H   26.861916   54.060322   82.254951
H   19.661591   13.605877   91.099197
H   96.017914   47.319138   11.745178
H   53.206566   74.802254   62.624939
H   92.617783   65.909698   26.080894
H   42.422234   92.897858   54.542366
H   35.484692   54.992512   60.750931
H   51.934135   41.174168   48.325985
H   26.915220   70.190636   47.326862
H   64.160980   70.195717   41.973381
H   94.439384   30.524490   77.123253
H   11.967752   40.584972   16.572525
H   19.630684   85.180336   73.658775
H   42.016750   90.180138   17.341162
H   81.069984   50.386215   69.084167
H   20.194561   74.701569   73.123878
H   84.441879   75.924187   12.262464
H   13.539361   15.287664    0.491506
H   63.263298   14.350040   94.414391
H   42.207024   28.317602    8.149065
H   33.655529   84.039604   29.771910
H   68.697914   39.802471   99.759201
H   12.597534   21.231239   17.293737
H   32.232143   78.113907   77.499931
H   23.739988   53.615997   19.011267
H   45.263622   35.739094   64.651711
H   46.646915    9.398823   93.065193
H   60.770580   57.370209   48.850616
H   56.369564   20.474531   19.365639
H   36.265343   30.617054   47.262009
H   76.996758   67.840172   13.218273
H   43.358692   34.367287   79.112183
H   23.566004   37.603649   14.076733
H   59.432732   36.139282   61.333900
H   20.258823   67.448387   39.353851
H   46.751289   72.146225   21.084730
H   96.615463    9.970779    9.665573
H   50.746037   19.228691   87.766350
H   44.592621   46.743225   50.784622
H   82.477745   41.738430   24.393064
H   98.202820   15.103376   94.296516
H   13.428253   65.238228   24.388363
H   12.419373    5.259899   85.087997
H   39.532978   40.968529   66.370529
H   10.383356   55.051170   60.979275
H   29.050121   66.205963   22.513906
H   51.636421   21.122414   90.279808
H   92.043068   32.616695   84.720230
H   12.025623   56.911987   82.705292
H   78.362572   74.679054    7.387210
H   79.756897   70.718330   96.601501
H   44.647270   29.586557   32.916828
H   73.024658   70.645767   35.047218
H   48.094986   97.763756   99.259514
H   76.560081   95.160919   58.370399
H   79.668480   32.111561   86.138779
H   83.270607   63.763023   31.950768
H   88.218811   15.323580   34.149555
H   46.475018   91.371132   49.027317
H   78.374985   46.360493   44.868950
H   80.010231   76.230728   10.971433
H   58.572361   54.493542   25.642254
H   24.174110   60.143021   82.996803
H   71.991135   47.933807   62.012089
H   17.813351   20.698824   40.836792
H   33.668381   96.447739   11.512555
H   95.201416   98.568748   11.015958
H   29.916449   26.163177   39.748947
H   95.186050   10.182314   70.402565
H    6.256672   58.483772    8.262093
H   50.875439    9.009193   11.335439
H   23.754730    5.023273   84.926712
H   58.603848   78.786430   79.957893
H   41.646198    0.655204    7.447923
H   82.773201   61.056187   91.133080
H   14.456413   31.438049   72.086571
H   95.207764   99.497505   41.574844
H   69.164780    7.534961   97.035194
H   15.812966   36.987274   17.042324
H   92.620537   47.355244   40.914017
H   90.587234   16.106979   62.967804
