100
TIME:    6.520, STEP:  6520
H   76.401443   24.105181   93.176773
H   20.408958   58.174603   89.212318
H   91.839783   42.978493   46.808659
H   82.570969   64.026398   82.779785
H   36.772003   95.364182   88.921906
H   26.911694   94.144493   24.443363
H   11.257600    1.598274    0.325572
H    7.427155   52.664028    9.548486
H   93.353828   59.421982   89.675972
H   96.675026   10.001738   63.002110
H   93.780518   28.588705   11.710453
H    6.989113   50.504459   28.827892
H   28.012070   67.313225   77.161552
H   32.248909   84.979408   53.415844
H   59.797920   87.634300   37.355587
H   39.369385   41.466042   91.823730
H   99.807381   13.218879   66.929665
H   40.494404   77.575928   73.507362
H   46.816097   51.876778    6.862073
H   16.858192   67.350136   60.244530
H   77.370682    7.130109   80.278099
H   87.459091   52.739380   64.040054
H   98.690804   41.595482   45.806168
H   13.255596   14.826387   22.841227
H   96.392403   69.092209   84.691566
H   16.824484   33.912033   77.305183
H   99.851601   71.449905   29.334257
H   82.402878   60.771263   82.289902
H   52.942131   40.637127   48.967804
H   50.998524   29.470024    1.710337
H   72.659920    6.717057   93.537361
H   77.434082   72.368927   95.675026
H   29.616772   91.448509   85.170044
H   53.587563   76.203659   97.074860
H   18.691528   66.014565   21.732752
H   39.409786   96.102760   98.927498
H    5.152221   65.758911   22.215673
H   94.509712   39.634624   82.539680
H   69.862671   39.355827   12.475996
H   49.081928    1.802231   51.015079
H   89.656204   79.899422   95.954079
H   50.743927   67.171326   12.817945
H   67.398407    2.599406   72.419762
H   63.018139   22.080709   18.227026
H   91.094078   74.644882   14.044188
H   93.964012   87.275864    9.649435
H   92.672165   79.417496   88.050377
H   56.587620   62.523865   71.998581
H   55.613770   92.464027   84.388931
H   62.628185   29.971495   27.653154
H   43.053898   40.179901   22.157494
H   21.995838   58.732887   46.038857
H   44.117359   59.813904   24.196844
H   25.704231    0.820171   19.525753
H   21.662979   29.986286   55.805485
H    1.716411    5.675316   70.670609
H    9.592414    1.414385   76.093666
H   40.562653   61.154030   45.615829
H    4.496221   14.256103   10.942768
H   28.766205   28.936977   78.166283
H   70.987175   75.360489    6.046192
H   67.510384   67.254837    0.343188
H   16.702829   62.370033   86.374481
H   90.756332   77.280304   50.123631
H   91.112518   40.102680    2.747844
H    0.813673   18.144402   31.697126
H   64.456711   73.774017   81.847427
H   29.984901   90.422585   77.896301
H   81.858315   81.300720   51.310589
H   62.475876   76.080009   88.003876
H   14.992699   51.780533   83.937508
H   36.363415   35.139008   33.985435
H   81.874741   95.801605   94.573792
H   86.678642   36.768627   15.757353
H   76.525505   37.936764   95.657852
H   79.795448   25.443211   57.215126
H   58.938076   61.479168    6.374762
H   38.301785   24.393061   74.515785
H   74.169701   34.367428   90.424522
H   79.778305   53.844582   59.217339
H   38.458977   96.734055   69.674225
H   30.552866   86.753983   41.541180
H   30.279648   16.155432   50.875854
H   98.715660   70.089622   67.914970
H   34.859856   41.055832   15.711370
H    1.230021   48.545555   94.551666
H    2.610790   29.295677   34.442207
H   60.888542   83.337158   27.975571
H   90.990829   31.148520   74.865608
H   89.883011   41.026180   57.289429
H   90.847893   25.493484   71.152267
H   60.712872   85.845901   57.755211
H    3.398137   23.151348   23.206186
H   77.399422    8.733834   66.432587
H   43.865883   65.708725   65.908844
H   32.446884   38.263336   30.682632
H   45.075157   41.848999   62.218201
H   25.692217    9.069169   47.991707
H   98.115471   64.957146   98.917961
H   44.192791   11.321560   69.648949
