100
TIME:    8.267, STEP:  8267
H   58.258537   63.897820   91.577347
H   72.162216   52.841816   99.365372
H   21.873072   68.665070   26.297871
H   82.864197   92.049248   87.020332
H   21.119650   35.393757   41.552231
H   99.816772   92.251839   97.454445
H   19.697083   19.564875   36.943333
H   70.116394    3.803192   49.145866
H   50.409233   91.454239   79.709503
H   48.958809   35.086872   31.407146
H   31.278824   98.883484   43.430084
H   40.313591   38.072445    4.475389
H   16.590721   61.594452    3.555722
H   45.748482   79.594673   86.362282
H   81.016975   31.583633   53.339859
H   69.125015   88.666832   46.807892
H   59.324074   28.768688   25.965979
H   77.849396   92.566902   12.951729
H   74.024582   25.163761   98.900803
H   69.786514   30.255259   79.188423
H   73.701225   33.211445   32.863865
H   54.945683   55.058548   15.266830
H   75.365837   27.389410   95.820892
H   50.934883   35.725555   93.094360
H   33.908150   30.545853   97.593605
H    8.627819   82.392319   12.920481
H   49.206726   98.826553   64.001816
H   34.996422   42.315311   40.035660
H   90.928505   99.139236   66.386528
H   17.986782   86.230972   40.591003
H   41.414257   63.372574   55.320351
H   87.740807   24.103931   33.946449
H   52.673962   63.629265   42.553604
H   27.402843   16.101357   23.475367
H   75.212852   33.742088   28.023031
H   91.274170   32.936592   93.436134
H   72.711235    1.778740   59.872585
H   22.302418    7.660297    5.821434
H   96.118126    1.294851   43.178352
H   84.534241   38.254448   88.465027
H   70.260712   39.842575   37.111416
H    3.516112   74.022202    2.006224
H   82.433014   13.079092   98.608162
H   51.467281   51.405266   89.038727
H   39.554741    5.720755   63.540787
H   71.412102   20.593449   16.746889
H    6.324456   74.425545    4.820760
H   56.692196   80.517410   80.092674
H    6.685054   47.776588   14.699423
H   99.307861   56.562466    5.503268
H   42.933941   71.517937   40.573990
H    6.904550   96.622330   31.359947
H   80.351677   69.943604   22.737680
H   85.247223   72.323425   96.617020
H   82.563820   83.085434   70.660843
H    3.892298    3.837642   11.198608
H   20.344337   51.005730   42.248009
H   10.478181   96.170769    0.615066
H   42.275677   88.078529   76.829086
H   13.482860   63.218487   28.477440
H   81.189102   94.118164   69.834724
H    5.505959   50.994003   21.298527
H   35.307003   43.158112   66.577454
H   10.719448   86.796890    2.688062
H   60.456383    0.571893   65.438660
H   93.494179   31.296165   34.993916
H   24.291838   34.174335   66.192917
H    9.307562   90.335442   61.413010
H   68.929718   55.772438   41.741402
H   97.923210   63.872410   84.309433
H   59.517086   32.914299   62.985023
H   92.500229   77.102928   62.012646
H   67.967255    9.392584   49.785496
H   48.217915   26.201778   11.956762
H   60.700729   40.487926   28.111029
H   21.093065   37.409912   39.665092
H   17.602741   10.269989   37.358223
H   20.376875   10.165051   70.998169
H   57.944283   29.235935    9.915989
H   94.104362   58.676903    8.711779
H   72.655418   14.808267   74.090225
H   61.644234   98.083252   95.387138
H   40.780685   45.371616   17.250019
H   18.906166   19.584261    8.355129
H   49.796326   31.770191   46.360023
H   61.029758   12.713740   15.868970
H   19.289095    2.273942   17.745781
H   88.985130   43.540771    9.862068
H   27.249130   33.878365   60.577400
H   35.424809   69.151016   19.742834
H   62.342396   19.825733    8.046042
H   89.973183   17.236908   91.047432
H   15.383980   75.569603   58.304382
H   46.239029   14.722157   84.229927
H   13.659336    9.221481    6.053936
H   76.741882   69.277222   40.447746
H    6.407059   42.104774   61.745979
H   22.320093   95.511452   12.920660
H   14.892035   72.501106   52.590260
H   52.705425   66.486282    1.353149
