100
TIME:    3.738, STEP:  3738
H   64.536530   79.227722   95.723770
H   97.290245    7.412436   13.791615
H   44.007561   42.830315   79.463844
H   82.104019   78.644218   35.270351
H   61.690125   72.374687   64.352036
H   70.059090   97.158440   48.933067
H   57.060421   13.744581   82.769402
H   26.086868   11.987014   64.984215
H   61.740761   26.900040   64.794624
H   72.691185   70.055504   54.067642
H   52.555374   16.648792   79.686012
H   13.170441   11.057159   26.853754
H    5.488822   35.553314   53.601654
H   69.997124   93.554298   41.703991
H   25.969582   36.133774   71.091469
H   51.227905   84.789848   22.754801
H   23.519539   29.210453   13.673239
H   81.018517   12.921823   69.953796
H    3.489214   35.167366   60.292988
H   91.811455   26.435701   70.833061
H   42.458496   84.087646   55.785362
H   20.746048   49.046234    0.953068
H   35.836342   64.221306   25.402149
H   71.740791   81.513123   29.456844
H   95.892487   89.716934   64.145790
H   29.517195   16.230078   38.807999
H   39.746922   87.092972   74.139198
H   17.140551   30.916901   90.329460
H   92.449631   88.232803   80.475319
H   44.324234   98.323845   80.549072
H   63.171291   57.248478   13.640282
H    1.776916   49.233017   53.218666
H   33.656849   94.992882   34.545517
H   36.041473   31.157265   14.275272
H   87.854050   76.355919   52.345406
H   97.565208   78.125397    7.783924
H   38.321915   67.642075    3.005181
H    9.494710   90.542274   86.221840
H   87.290222   99.974358   82.072472
H   11.115971   62.245140   32.131977
H   79.786179   84.443527   30.411360
H   95.670975   79.622314   78.415878
H   43.438419   85.915619   71.472466
H   40.661987   75.417877   46.215500
H   32.412151   84.408813   75.981384
H   29.862316   34.213428   98.345741
H   70.937790   28.123470   61.347252
H   56.439045   33.870148   99.864220
H   74.293930   22.868652   95.363007
H    4.274516   87.632301   22.224072
H   43.259434    8.763515   92.829697
H   86.792953   16.880444   28.669132
H   86.412849   43.682922   85.772408
H   90.130638   46.218620   96.764923
H   43.168472   86.175720   32.139637
H   98.243301    8.602255   65.376465
H   33.224667   81.688164   11.502419
H   47.716789   23.879768   17.272797
H   85.084938   96.707748   24.514477
H   12.350152   15.102659   57.292976
H   95.496162    4.738820   22.952274
H   66.245689   93.149307   26.221382
H   27.832727   52.208916   77.144585
H   99.720695   62.128296   25.653202
H   80.690788   62.297207   43.673054
H   71.713936   56.445747   67.203537
H   87.661453   77.593689   47.533367
H   22.156715   31.318087   44.900616
H   43.204292   81.197495   25.791439
H    6.118692   36.153000   93.861969
H    3.333231   41.066658   17.308151
H   65.750900   27.468353   30.300217
H   63.266953   33.409313   65.908684
H   47.924862   12.830967   81.055077
H   42.395153   33.967693   84.763466
H   14.024507   47.143951   44.409237
H    6.340744    2.561203   57.157658
H    7.598368    6.301407   20.875063
H   40.762863   42.539043   59.390457
H   16.206917    5.373718   98.889275
H   84.024338   67.952988    3.400763
H   21.790726   68.639542   74.208130
H   54.302303   69.651550   85.925995
H    7.319067   32.028145   22.008636
H   70.319656   15.069742   85.395309
H   65.265076   46.358101    1.361143
H   16.807302   31.569878    1.785512
H   16.125757    6.020990   56.868950
H   33.258896   86.046654   97.618782
H   35.849010   55.485802   57.839966
H   76.996948   75.271904   12.401528
H   54.869637   76.621635    4.752016
H   25.066826   39.676025    8.069803
H    8.519125   39.970108   78.852135
H   91.961678   14.901882    1.983039
H    2.665053   48.121346   74.376305
H   65.897491   82.196861   22.213545
H   20.587393   48.064514   96.223854
H   30.643578   52.963345   31.940277
H   71.391487   82.709785   37.646454
