100
TIME:    7.588, STEP:  7588
H    4.177094   26.164894   92.198990
H   90.915115   16.045727   56.553982
H   10.201723   19.814930   34.268589
H   82.750229   20.025043   24.238171
H   27.203981   80.969002   59.963226
H   10.347112   92.987450   30.210854
H   55.281864   73.716522   83.844635
H   23.484459   45.059856   11.488261
H   67.100349   56.738144   22.448917
H   67.504494   25.337435    4.819032
H   94.437759   71.562271    8.835295
H   66.230484    4.037942   52.806709
H   59.888161    2.694851   71.031487
H   79.369011   81.687538   34.690441
H   72.769844   92.235275   85.995148
H   96.425507   48.054810    3.170301
H   13.925373   83.857941   64.153931
H   63.333790   25.606750   36.488029
H   63.446560   96.677750   63.125370
H   88.083542   44.672512   32.958900
H   13.994034    0.807190   51.290401
H   89.849289   54.157166   73.089996
H   84.431465   32.909508   15.248260
H   14.022963   27.602755   43.523117
H   58.193672   84.393723   92.579018
H   11.829281    2.408897   76.818459
H    7.756815   27.052221   50.527706
H   92.288567   10.621879   17.590826
H   76.164482   37.534412   98.484032
H   91.951340    3.036285   86.613121
H   14.690398    2.486798    9.040596
H   44.868160   42.862011   96.804924
H    4.844877   13.308310   81.383919
H   98.712257   78.327827   52.080536
H   92.111183   85.151970   86.711746
H   32.249165   79.753357   95.570442
H    7.587286   26.647024    6.370074
H   50.365318   20.087109   57.904320
H   24.779774   16.087374    8.978981
H   48.488297    1.819663   35.042358
H   16.665545   16.546499   21.114470
H   60.738640   71.359497   67.339439
H   76.589569    9.006035   49.562046
H   94.824905   40.006737   22.650105
H   98.453346   32.508518    5.435368
H   80.177269    7.645123   13.988348
H    1.016531   37.499947   98.300804
H   56.650753   73.523926   38.079967
H   86.835457    4.012722   41.785927
H   85.051514   46.227650   52.980064
H   42.980564   37.071457   33.414734
H   73.905258   59.629505   75.931793
H   66.271461   66.006531   62.171181
H    0.974464   83.399033   66.653824
H   36.627487   23.580681   64.889923
H    3.046604    4.551884   34.313370
H   77.297546   70.597847   77.669350
H   61.037521   60.294472   18.105471
H   88.722603   59.388866   28.955299
H   58.287857   11.026372   47.789818
H   38.357891   25.694870   22.776146
H   29.604988   57.314041   52.022331
H   89.209908   89.491241   13.138519
H   64.095512   83.098114   21.124210
H   33.502975   54.804111    2.205982
H   35.204468   65.051384   94.845627
H   78.768860   10.700071   33.411602
H   56.210716   51.503471   28.952881
H   35.087189    4.561035   84.326660
H   84.133095   29.770105   85.749573
H   81.078819   79.114502   71.128548
H   48.413670   99.647850   12.244008
H   12.239122   42.978596   67.195862
H   63.163250   69.173828   52.300110
H   27.992262   39.488117   76.628998
H    5.039897   93.892235   85.353096
H   55.935261   69.040718   25.315325
H   88.478363   54.560726   33.496586
H   25.385725   31.230373    2.338419
H   27.402077   95.664665   67.208229
H   59.362617    7.783700   33.507294
H   10.694455   93.679947   52.191578
H   97.832237   34.016270   52.586563
H   72.190742   61.480831   70.369896
H   82.857376   74.245201   12.181422
H   76.654709   87.774170   68.716934
H   73.940147   51.643059   85.368416
H   78.064934   97.874329   16.902176
H   13.155965   71.684624   66.130745
H   95.457275   97.083511   95.470428
H   34.554951   83.161415   93.706467
H   39.734058   66.169479   78.106895
H   71.858948   55.198193    5.796268
H   80.616707   73.528038   38.445919
H   25.400620   70.043564   90.451202
H   20.659317   96.090759   75.518776
H   60.302513    3.139606    0.795552
H   23.630724   61.911968   26.552774
H   47.238152   69.569023    9.462124
H   10.531954   83.913010   66.765045
