100
TIME:    2.464, STEP:  2464
H   50.691803   96.060051   96.890152
H   32.729652   38.338936   33.428303
H   22.108740   51.173813   94.412971
H   81.890182   31.134279    5.102225
H   73.101227   70.257980   98.896378
H   89.809822   98.538658   22.763773
H   23.832592   27.718552   83.140862
H   26.220757    1.770018   81.957863
H   93.058113   49.389877   44.987370
H    7.506632   51.762749    4.175755
H   71.059753   65.386917    2.404898
H   61.798843   47.198166   17.538809
H   86.527214   12.632088   80.227104
H   33.078331   97.481117   44.752140
H   10.471283   49.932648   32.329613
H    2.451701   96.218536   28.508398
H   25.965515   44.945259   97.694794
H   53.799301   74.876259   14.122345
H   83.642326   81.721420   93.176331
H   26.134552   53.487041   84.093239
H   18.059372   10.917866   90.366272
H   98.606430   47.354980    9.445877
H   52.846077   74.582664   61.852463
H   90.109192   66.233521   24.075546
H   41.456535   90.756348   54.741562
H   35.360889   54.188107   58.220299
H   49.605789   40.051708   48.861774
H   24.637033   71.450905   48.219433
H   64.748062   72.645393   40.697044
H   95.474709   29.856247   79.269707
H   13.029958   43.006222   14.436100
H   21.335487   84.434227   71.159248
H   43.918690   88.204659   19.773535
H   82.210777   47.911819   67.946671
H   19.523331   72.660583   74.768120
H   86.789383   78.045097   12.169663
H   16.129009   14.298792    2.618965
H   62.147430   13.855862   96.319832
H   41.067261   27.729387    5.532612
H   31.112501   81.512062   31.896219
H   66.852623   40.728825    0.395390
H   10.170929   22.443100   18.562143
H   32.464710   78.275818   79.450279
H   22.015924   54.068565   21.651178
H   42.921680   34.673901   66.962135
H   46.298580    9.913807   93.174782
H   60.981724   58.838531   49.109962
H   56.371006   20.752520   21.036247
H   37.054504   28.380993   46.184868
H   77.562828   68.250923   11.329929
H   43.356632   31.760633   79.396866
H   24.878080   35.098148   12.304157
H   59.992828   36.295837   59.765671
H   19.633633   67.007973   40.545319
H   44.601746   74.513092   21.313795
H   96.649246    9.942404    8.746429
H   52.457638   18.449623   90.334267
H   42.582123   44.193436   50.089188
H   84.607307   42.879223   22.320253
H   96.420975   17.178762   93.528572
H   15.131460   63.982494   22.283314
H   11.461193    5.008535   83.866455
H   41.364468   39.127357   64.518234
H   12.237402   55.198044   60.246143
H   30.121803   64.049622   25.028368
H   49.977760   19.780159   91.876259
H   89.876839   33.550053   86.023758
H   10.160505   58.456116   83.996048
H   79.708122   72.739006    5.693788
H   80.304016   72.076241   96.544647
H   43.789925   27.749403   32.592800
H   70.798279   69.749695   37.024139
H   46.334564   96.428093   98.567375
H   75.965996   93.452408   56.765709
H   80.970360   32.150082   88.185532
H   83.908775   65.493401   30.134007
H   90.670135   12.983389   34.627048
H   47.743526   89.605766   50.518505
H   79.669861   46.281185   45.170319
H   78.686104   74.760345    8.645404
H   59.100735   54.772869   27.255905
H   26.200058   60.319351   80.739113
H   73.699234   48.384521   64.583710
H   19.670795   23.009249   38.370636
H   32.353729   94.759003    8.895251
H   94.580139   99.560402   12.890964
H   31.719717   24.200058   41.036407
H   95.620697    8.020668   70.121590
H    6.817052   56.980431    8.041216
H   48.488178    7.898270   12.300570
H   24.859680    6.481168   85.496902
H   60.601780   80.816704   80.472466
H   43.378605    1.464199    9.536751
H   85.382729   62.694042   92.953651
H   13.989529   29.019478   72.707024
H   97.437851   98.431282   40.180267
H   67.021622    9.084394   95.482414
H   15.912101   37.217163   16.610252
H   91.334312   47.471630   38.652412
H   92.264023   15.413458   60.367340
