100
TIME:    8.640, STEP:  8640
H   33.033684   29.691832   91.235855
H   61.860550   73.054001   22.884239
H   28.284578   95.500626   21.919662
H   82.926804   76.682121   66.576363
H   17.777300   65.291351   31.438465
H   94.034180   91.847740   34.393898
H    0.148540   44.752731   66.112419
H   40.799332   36.071537   14.897119
H   41.240181   55.591919   56.231007
H   38.770973   40.442600   46.011665
H   96.583282   13.891540    7.501341
H   26.076233   56.769115   77.924599
H   92.805435   39.019005   66.486954
H   27.279837   78.444984   14.747387
H   85.547432   98.265450   35.403008
H   54.127838   56.042992   15.845238
H   29.329720   53.438618   59.921638
H   85.823227   74.416618    0.022532
H   79.835632   40.812618   18.551075
H   59.736485   22.334074    4.583965
H   51.566872   96.077423   22.740179
H   90.705559   55.553711   83.502487
H   70.385750   24.357248   85.149277
H   16.276968   40.187714   65.393692
H   20.568428    0.964134    0.348137
H    6.868576   71.396286   77.820099
H   17.041716   83.322830   71.400803
H    3.524111   59.725697   52.366356
H   99.038933   32.980038   48.754173
H   32.288200   76.999313   70.243866
H   56.095554   96.821632   25.809776
H   11.292124   13.799267   99.416023
H   78.947281   36.338387   76.156387
H   43.163101   81.918304    7.762474
H   65.929970    5.500757   50.717999
H   23.697771   62.154053   92.263680
H    8.487767   88.118904   89.263634
H    6.885912    0.833938   32.141937
H   80.375359   93.167564    7.032440
H   49.401619    3.334987   17.811411
H   44.768356   52.639977   45.899136
H   72.081726   75.484924   21.048561
H   85.643036   15.316574   25.549587
H   27.651081   57.668793   25.508076
H    7.200166   91.007133   95.458916
H   66.597069   27.706436   18.262259
H    9.240689   94.710152    8.402641
H   56.714962   84.359192    3.171748
H   17.587219   16.885818   99.819702
H    7.137453   62.239765   79.424309
H   42.908329   35.507637   44.506836
H   25.033155   62.011982    6.873819
H   88.086464   72.106384    1.074301
H   76.607483   66.239182   13.075801
H   52.865425   15.772904   73.831024
H    4.356869    3.445282   98.500793
H   43.989792   40.243050   77.723305
H   82.703796   60.945900   91.007713
H   71.695183    3.838798   48.193436
H   88.868172   91.886795   17.868431
H    4.718029   76.770386   40.753292
H   92.267418   47.522171    4.421234
H   60.631458   17.704798   40.999725
H   36.332989   88.828766   92.562180
H   75.260727   70.782379    0.174060
H   70.580086   12.753291   57.048588
H   94.364700   47.068493   84.200912
H   83.541763   11.667966   79.244568
H   87.518250   28.971031   18.346375
H    5.498798   82.608902   83.518311
H   47.670170    7.534071   58.511482
H   61.783257   64.718163   89.354538
H   43.647354   90.941521   40.220882
H   40.007885    2.594823   89.794594
H   78.668884   41.037159   56.392231
H   29.912088   61.317177   14.567349
H   51.479324   77.986816   43.974625
H   37.899189   85.776848   91.601501
H   75.831795   28.140316   14.078630
H   75.811790   38.358147   76.577538
H   79.957649   18.667124   96.383942
H   89.634933    0.502666   64.180489
H   64.374870   51.609531   52.773693
H   44.567146   51.502907   74.286247
H   31.634659    8.437540   10.202488
H   52.444088   26.414673   41.771118
H   44.200916   75.153770   35.531807
H   94.984001   13.692425    5.994490
H   34.990482   13.111174   57.526741
H    2.446239   53.804764   33.076546
H   77.607079   39.965206   15.923118
H   17.571405   45.289703   98.156151
H   39.294071   86.759148   87.149048
H   82.287766   37.351673    9.380499
H    7.209455   75.811508   14.624666
H    7.550210   54.547546   21.181923
H   76.799889   63.510612   40.294609
H   21.600115   13.967877    5.432032
H   97.123528   74.111809   21.346615
H   75.874252   56.915241   65.422440
