100
TIME:    4.474, STEP:  4474
H   14.764065   11.732695   95.049942
H   76.914619   47.304108   60.207062
H   56.658684   95.781975   70.827614
H   82.227554   48.321953   94.927376
H   55.097839   31.368334   44.395493
H   58.646297   96.361076   21.821112
H   18.488392   63.444958   40.325634
H   68.238716   75.659271   97.405495
H   43.648476   56.136551   18.464243
H   52.577415   80.623375   82.886963
H   84.094452   46.263538    8.791519
H   85.080437   47.949059   74.464973
H   58.571915   91.038063   80.462891
H   33.554253   91.285744   97.712570
H   34.922157   70.391724   35.711002
H   21.634636   20.416801   61.660095
H   64.334663   77.890518   80.674217
H   96.742622   77.127312   44.434521
H   14.952438   66.045166   99.071259
H   71.978447   10.805696   20.943308
H   98.783226   10.815990   35.811974
H   91.307083   50.023285   38.275833
H   26.009682   58.235466    4.342990
H    3.358419   90.340271   74.795456
H   69.568268   31.349045   69.581337
H   26.151304   94.391937   69.702919
H   76.281425   56.499798   88.738808
H   55.038013   65.270905   14.657191
H    8.453706   55.008144   45.683327
H   72.546402   80.108025   39.058357
H   92.134834   23.248043   55.410301
H   48.248241   28.900253   85.083473
H   85.499977   41.142784    0.850206
H   67.138641   63.707336   83.269096
H   69.559616   20.720177   97.164749
H   61.554768   35.851887    5.362130
H    8.914167   40.688950   60.999012
H   79.072701   77.076942   38.158962
H   56.225338   83.937248   10.748602
H   41.792564   93.342125   90.039368
H   29.485050    9.698880   47.751202
H   29.523514   12.652900   12.993841
H   49.778019   90.329193   24.635889
H   93.664291   87.748932   18.179106
H   68.568382   55.368492   38.963276
H   20.366955   48.251514    1.335128
H   76.687790   68.149132   68.413322
H   56.478352   41.450714   45.403679
H   95.811508   61.911907   66.006561
H   19.710796   98.829079   70.745949
H   43.203281   37.708015    0.589848
H   22.560228   48.585918   80.352417
H    1.675553   47.950500   43.026485
H   73.082787   34.207634   29.240925
H   84.568176   50.679142   38.400623
H   99.164200    7.827509   40.321289
H   79.883560   60.451347   81.502022
H   92.912491   54.373680   98.314316
H   43.131073   27.806873   68.012764
H   63.779476   71.675385   36.359383
H   41.924377   70.508934   65.566444
H   40.123619   86.298721   92.919159
H   77.800911    1.984973   26.674858
H   50.261696   66.134949    5.668583
H    9.902368    3.512626   12.213107
H   26.500069   19.856880   10.721257
H   28.611486    3.041506   83.066574
H   71.315941   73.409927   80.085670
H   79.886185   28.313217   79.631531
H   21.029947   73.172852   92.312164
H   79.962425   90.988647    8.478195
H    5.065874    3.041481   84.187431
H   15.278181   97.005287   47.036446
H   31.719296   66.257317   37.323631
H   77.880013   35.017742   40.557949
H   31.425959   94.313927   94.886459
H   73.165817   38.769794   70.173775
H   42.176983   58.177731   61.523743
H   76.056526   40.377178   67.603081
H   80.111725   65.291771   35.482048
H   98.421799   75.567245   47.389080
H   77.015236   73.446182   12.664278
H    0.863851   81.940369   56.025852
H   57.953003   95.008614   54.785393
H   34.483231   69.034645   14.048181
H   48.324329   73.393501   52.471390
H   65.963066   78.056671   36.881195
H   27.971094   47.094887   49.215385
H   48.532333   45.066673   91.599251
H   70.777634   25.202843   84.151642
H    7.117219   15.015366   27.944498
H    9.327922   31.968246   18.776758
H   72.245613   61.760742   64.985825
H   79.657150   84.614243   28.477854
H   79.237556   48.976555   18.894482
H   63.455643   19.058144   36.361168
H    7.477567   24.434124   79.884964
H   23.288321   54.331116   84.443092
H   95.582214   56.135952   70.293327
H   17.108995   63.820194   66.746475
