200
TIME:    0.952, STEP:   952
H   31.349257   60.112019   27.514336
H   34.309875   43.272545   18.802132
H    3.214749    0.302269   80.418022
H   41.842453   85.295784   25.881073
H    7.650641    1.774821   43.421654
H   66.455994   33.490196   44.475288
H   13.674834   54.798943   63.432674
H   18.844149   19.630524   99.799713
H   16.342836   76.832092   30.350056
H   85.797440   64.923973   67.988350
H   37.010464    9.803673   15.461540
H   33.722015   61.027145   46.667931
H   28.649334   10.638750   32.110283
H   70.751289   56.210903   76.575127
H   85.246841   77.425606   41.226730
H    8.547184   96.630478   38.963661
H   17.710899   41.062790   80.873703
H   19.655670   17.395885   30.844618
H   88.714935    3.925371   52.965126
H   92.321449   69.926842    9.869924
H   66.629814   12.300278   93.220856
H   74.178078   76.029335   43.137009
H   73.684105   57.364639   32.052162
H   23.689178   94.550575   89.353477
H   34.193527   41.339516   20.004284
H   18.071707   93.934830   83.440865
H   12.684215   73.083260   77.709183
H   10.851060   99.500954    2.604728
H   41.056660   34.888130   34.169205
H   60.874657   39.838467   73.996628
H   12.431919   81.195595   17.065311
H   18.978573   80.193832   11.133154
H    9.919746   24.305811   81.875992
H   72.861977   64.354713   50.735306
H   13.819668   60.380936   28.802454
H    9.793076   33.689896   87.629112
H    6.699886   59.061508   91.300148
H   97.696869   63.172947   83.155243
H   26.718994   20.905510   60.258141
H   83.254562   36.760571   35.883881
H   80.716164   71.963058   25.157082
H   48.778519   28.176332   18.718315
H   63.882061   71.425789   76.766457
H   35.695084   97.814827   44.212147
H   53.104614   98.018234   70.057884
H   31.040098   95.308968   50.431377
H   93.391510   91.328857   11.789062
H   72.781898   65.539742   22.051468
H   14.615928    1.733098   61.679668
H   36.637997   21.014608   75.590942
H   61.270859   61.484215   99.651863
H   93.921440   47.952862   78.849464
H   71.381798   74.061272   17.230652
H   11.809599   97.208969   92.246925
H   47.061447   60.550278   67.746559
H   96.178886   54.808289    1.963102
H    3.398578   19.439796   42.017017
H   75.187485   75.131088   92.451714
H   13.157251   88.231613   24.346684
H   26.635792   91.991127   53.832184
H   48.113579    1.485125   21.433475
H    2.733095   18.111559   54.524818
H   91.062729   39.955322   60.863689
H   41.377861   66.168144   19.564537
H   82.793869   86.693451   47.045155
H   10.809505   44.222282   45.661392
H   59.579445    8.143153    0.545316
H   93.354240   93.068703    1.368048
H   41.847900   15.474906   52.967903
H   41.138424   54.039684   50.944569
H   58.152817   88.906769   92.326385
H   12.129894    5.107133   39.780849
H    0.091452   37.972301   75.654144
H   31.061674   93.314568   81.301186
H   87.814713   12.397201   34.134506
H   71.310402   93.940407   58.224854
H   92.418182   56.456268   62.073887
H    0.183943   18.935072   23.620735
H   16.948671   61.408226   19.152548
H   57.546001   86.696060   60.495514
H   73.587029   18.068525   90.562958
H   57.944302   55.784977   65.846245
H    8.221858   21.476343   69.447502
H    1.455885   85.141701   17.056961
H   13.553757    6.853007   37.604553
H   44.725845   60.862579   12.961397
H   67.765938    4.267759    3.403666
H   69.410469   92.045074   38.296959
H   87.479080   73.790146   79.734863
H   19.877937   17.962015   47.032375
H   11.396822   41.039249   77.587555
H   79.095894   94.782410   13.903568
H   81.084213    8.832054   75.451691
H   28.100363   68.853752   88.654900
H   43.165520   47.295036   97.593773
H   39.786476   43.628151   95.584877
H   88.963921   89.651390   28.993309
H   98.800865   41.480991   57.717545
H   20.884483   62.645645   55.404472
H   79.584251    9.496370   27.424234
H   41.633205    0.112437    2.467033
H   17.047224   87.428482   61.937172
H   37.938492   11.149093   40.451992
H   56.087852   69.254059   18.437504
H   24.394907   18.115891   48.171368
H   15.611261   91.913864   10.555747
H   87.907692   36.958286   50.562923
H   60.555363   61.611565   91.210335
H   90.890984   31.102196   33.561420
H   27.238710   18.133173    9.021975
H   56.562248   89.879585    1.296795
H   14.582237   81.249695   98.621330
H   44.727798   88.536926   78.448372
H   60.812309    4.047596   56.594482
H   40.090126   11.616839    1.807567
H   84.981728   84.969795   11.054867
H    3.300907   18.468550   92.480392
H   37.158749   62.041859   19.746330
H   45.901421   84.445114   48.351536
H   89.572365   60.885311   75.904373
H   47.985725   26.490818   64.188835
H   87.568878   10.613270   69.131073
H   49.401924   91.793411   45.151470
H   93.587555   41.697838   86.685295
H   55.611565   91.324028   69.264854
H   73.806305   81.833496   11.784515
H   77.688759   52.514389   43.557327
H   59.854759   93.154198   41.015942
H    1.229787   26.710934   68.664497
H    2.255498   20.774635   78.631554
H   77.350349   59.763336   30.620876
H   54.370964   93.113144   26.117695
H   90.112801   17.234743    2.672359
H   66.008270   31.257809   58.469707
H   39.599308   88.496002   23.699173
H   43.394516    0.713064   73.192162
H   70.071487   88.378853   90.783302
H   97.291466   41.989964   71.948433
H   64.923706   54.290726   71.381691
H   43.833626   74.943016   75.673676
H   85.866745   42.130524   37.909546
H   24.461143   62.644279   62.844761
H   32.117226   69.864784   75.368805
H   25.087715    0.754427   89.923012
H   73.769287   46.153610   72.350647
H   72.028770   74.241928   95.745567
H   61.570854   93.659752   42.183842
H   23.210854   46.915337   64.740013
H   84.219452   35.065025   90.866394
H   32.158569   96.448174   63.352341
H   51.125183   73.401871   45.969105
H   63.759140   87.407951   25.839859
H    9.252111    5.215725   78.471024
H   28.731079   17.485781   58.356983
H   41.846027   72.683609   73.633476
H   84.638512   45.294346   75.967499
H   66.764145   82.236893   89.186447
H   56.168839   25.236130   26.404842
H   79.794640   99.051315   76.199532
H   55.697163   27.892599    5.564249
H   60.949814   55.483299   64.484917
H   10.173899   19.366528   29.375793
H   95.867424    3.526847   36.936001
H   37.409607   41.096073   40.737488
H   52.136864   46.247757   16.820368
H   24.180801   41.784603   58.409702
H   62.639519   86.050850   59.769642
H   24.254192   63.327065   77.454849
H    3.748364   25.854765   35.175690
H   58.965233    5.086659   82.385529
H   65.762939   14.101150   35.916321
H   21.565683   39.000938   59.644547
H   51.429810   46.858967   70.390335
H   62.458000   57.508965   90.758377
H   38.345337   89.680466   65.753212
H   22.884880   51.513161   23.986267
H   28.103382   75.164368   16.690826
H    8.040375    9.879875   73.984451
H   57.392086    4.827409   60.808430
H   52.432137   62.092674   96.429008
H   68.418732   10.704774   25.165447
H   33.588707   30.975185   95.608902
H   32.850994   89.414886   20.173355
H   66.986122   26.537777    3.383929
H   94.730423   57.452728   75.463486
H   14.165726   42.231705   87.517677
H   56.144226   92.329109   15.041388
H   56.214935   97.383736   50.440651
H   85.998451   64.348183   74.680740
H   62.561050   54.400204   74.698624
H   81.832123    7.467927   74.216988
H   41.816093    4.278625   15.555482
H   19.915688   34.462959   74.117867
H   22.665010   91.946594   47.662251
H   60.460495   22.453346   19.487259
H   77.066422   12.130554   19.811626
H   14.194022    4.974327   27.498518
H    8.216898   83.255486   26.886848
H    2.418656   13.604128   46.173927
H    0.581601   10.870327   87.856888
