100
TIME:    1.575, STEP:  1575
H   10.811756   77.585831   97.704056
H   57.458763   90.138985   77.350792
H    6.827631   87.216209    4.846833
H   81.740967   67.760033   53.833172
H   81.063919   99.000725   22.999428
H    3.592953   99.501778   34.723080
H   70.423332   67.690361   13.619911
H   96.094398   24.859684   63.583801
H   14.911491   34.863647    0.945651
H   31.798269   38.998024   69.367058
H   53.752365   29.615849   88.037430
H   95.725510    2.637443   80.819054
H   43.076347   66.417671   68.585991
H   77.096962    0.221313   77.098701
H   99.657127   29.341534   75.064590
H   38.197495   73.975822    2.302481
H   97.439835   86.154251   16.755381
H   34.801430   18.108627   44.944138
H   69.792397   44.427498   46.338726
H   50.083672   72.365829   23.565928
H   70.813904   99.420410   14.496464
H   13.369214   46.178757   85.146706
H   64.715508   81.812843   87.286957
H   72.706947   55.571384   90.100815
H   73.253044   61.261658   48.182854
H   39.437191   80.678162   41.547668
H   26.264416   77.007339   31.220411
H   99.648605   29.955379   18.833094
H   45.417847   91.988556   82.721611
H   61.385708   51.858780    8.596850
H   78.057777   63.283005   84.780548
H   65.203644    8.998418   53.458427
H   81.298904   53.247566   39.685394
H   44.649117   29.383278    5.399487
H   41.622734   39.862312   20.635384
H    9.494660    8.207884   15.225194
H   30.862335   46.856789   32.569035
H   98.894844   30.127155   33.584705
H   79.914932   46.886391   91.170395
H   14.846388   64.737968   61.952999
H   27.607460   10.225360   79.450851
H   90.069153   82.544945   76.796295
H   24.807234   72.944748   15.237554
H   78.785118   39.167343   34.729382
H   20.036308   69.747482   90.886795
H   57.767841   92.957497   89.566475
H   52.710621   10.702262   41.081490
H   56.323528   11.599493   66.030006
H   11.070622    2.008693   81.647354
H   58.922581   54.721905   73.506432
H   43.424458   17.587481   70.023407
H   81.675301   17.590479   70.667068
H   41.551125   31.141113   11.395634
H   40.218616   81.509026    1.317783
H   15.373680   96.577545   13.771118
H   95.536911   10.876698   39.010086
H   96.100632   44.101158    5.783020
H    8.779419   28.148510   72.987015
H   14.494286    5.315634   90.569748
H   55.083874   48.848331   18.812828
H   59.053020    5.328145   91.596703
H   43.011322   13.284920   24.090424
H   81.064484   99.749626   25.507179
H   51.192421   50.362099   84.379448
H   94.836037   35.051273   42.237980
H    4.590611   63.975136   39.311642
H   61.203445    2.815765   43.103893
H   71.569710    7.612640   41.496708
H   35.400246   36.616867   61.452667
H   62.290253   27.360590   98.416626
H   72.018822   88.237450   43.257786
H   44.100918   99.253708   71.936699
H    4.298299   40.399799   21.362972
H   95.526817   49.711151    9.601662
H   38.108856   30.884737   20.793728
H   62.896137    8.514925   89.952202
H    9.954393   90.036606   18.902315
H    5.976695   47.735855    1.420169
H   37.047005   48.888523   35.251381
H   22.284683   23.175707   85.233589
H   41.703541   45.575756   74.122810
H   59.497929   54.513504   55.077103
H   17.452869   33.544342   79.910889
H   58.517040   46.936382   19.571114
H   75.639847   50.367889   95.073959
H   15.040913   66.909294   51.156090
H   72.345406   88.837585   98.645065
H   81.309555   79.196365   79.371605
H   88.367622    6.479091   15.313786
H   27.086990   44.476463   80.519432
H   88.478004   58.475727   66.722855
H   94.821007   13.961069   63.529892
H   86.339394   74.822678   40.761642
H   99.456825    8.767594   33.013145
H   29.362137    8.650040   52.278038
H   24.010162   33.535332   86.098007
H   37.585922   58.066463   46.609573
H   12.648007   29.647858   30.836613
H   33.682518   43.639500   13.121189
H   37.054214   38.247822   45.991035
