100
TIME:    3.996, STEP:  3996
H   47.088776   55.567749   95.487564
H   90.116219   21.400530   30.065958
H   48.442329   61.392174   76.436470
H   82.147324   68.014946   21.128271
H   59.379242   93.054527   57.356400
H   66.059334   96.878929   74.483849
H   43.539593   31.166683    2.945358
H    5.808578   34.306606   41.294796
H   55.398628    2.094200   48.553585
H   65.640434   73.760002   64.171326
H   28.556839   27.030048   54.833927
H    3.322625   23.989252    8.489717
H   89.074173   19.944252   27.959549
H   57.222313   92.759071   61.338619
H   29.108170   13.088682   58.689808
H   40.854523   62.224297    1.337878
H    2.772515   46.274372   37.159996
H   86.529991    0.375001   61.008801
H    7.507423   45.991508   73.886108
H   84.859123   20.956705   88.398918
H   27.148407   58.403744   48.783821
H   45.480759   49.388733   78.981979
H   32.391670   62.123009   18.019726
H   47.769814   84.607422   10.294775
H   86.664703   69.257553   66.051186
H   28.333212    8.543033   14.625725
H   17.498922   76.369217   79.256996
H   95.371368   42.959473   98.856499
H   98.059525   11.640559   68.279213
H   54.217331   91.938408    1.059590
H   73.324379   80.384285   93.228142
H   18.066908   42.105499   29.334297
H   51.830936   76.116081   57.788193
H   46.942383    7.513211    3.406744
H   81.441055   56.853172   68.055588
H   19.999987   98.391876    6.893476
H   63.066467   58.193832   23.334341
H   98.831337   85.822090    4.428977
H   76.401123   94.352654   57.070061
H   86.814781   38.091103   52.431919
H   62.153397   93.297318   36.489727
H   72.483414   91.200348   90.537186
H   45.660725   87.462769   90.109123
H   24.187082   79.740448   71.441772
H   10.032629   74.228333   98.058777
H   26.533779   39.134388   99.392921
H   72.953415   42.154381   63.825447
H   56.452824   36.527466   15.827721
H   81.836777    1.501786   85.072296
H    9.685603   91.557259    4.179845
H   43.239750   83.855263   95.550003
H   99.331558   92.940186   11.731190
H   91.762917   45.178894   70.789070
H   84.154625   42.008247    8.149364
H   22.626419    8.787767   34.334385
H   98.566116    8.330618   56.593536
H   49.579967   74.243736   36.040382
H   28.505363   99.514397   10.626947
H    5.433577    7.609162    4.707615
H   95.324707   34.934124   49.954842
H   11.771122   92.740135    2.837038
H   57.088768   90.747879   14.546960
H   45.349140   34.603691   59.452751
H   17.437204   63.531754   18.647724
H   90.930321   41.690197   67.699150
H   55.864510   43.619759   82.458511
H   66.961929   86.514404   59.989300
H    4.334646   46.073135   57.234509
H   56.063744   62.659256    9.609550
H   11.345736   49.130554   93.318695
H   95.140617   23.512135   14.212868
H   44.478416   18.905884   49.190708
H   46.445145   20.648281   59.293510
H   42.244106   96.504295   65.725304
H   54.833370   34.335781    4.321495
H   20.124369   63.680344   27.049778
H   29.765512   80.200241   61.720371
H   19.719677   89.431923   35.124191
H   53.134155   41.781216   62.270203
H    3.553748   91.322990   76.662285
H   89.071274   70.622116   18.820494
H   41.149780   70.324478   52.634644
H   70.625313   73.958374   10.499218
H   25.068968   54.105537   98.444717
H   57.757431   98.931526   60.385025
H   59.326878   55.835869   19.277756
H   34.038536   12.811180   14.088301
H   20.278063   85.364937   54.186043
H   38.612900   71.681389   95.508675
H   13.038165   44.870308   67.062500
H   87.555359   89.204124   17.850016
H   73.959961   96.022026    9.668385
H   41.604774   47.417679   28.021341
H   33.456432   55.620728   96.248711
H   87.501320   91.791862    7.911319
H   23.974838   37.932991   61.050346
H   45.418427   97.003044    7.375170
H   21.534185   50.261230   92.094185
H   18.352989   54.075481   10.329391
H   87.418068   76.088142   12.792369
