100
TIME:    8.480, STEP:  8480
H   43.853996   44.364586   91.382339
H   66.279495   64.384567   12.795737
H   25.534334   83.989395   23.797714
H   82.899948   83.273918   75.345894
H   19.211016   52.466648   35.776764
H   96.514648   92.021080   18.548470
H    8.533998   33.948288   53.600208
H   53.375015   22.229982   29.588257
H   45.173286   70.975220   66.302750
H   43.141090   38.145237   39.747017
H   11.466080    7.453843   22.913328
H   32.183411   48.749096   89.313759
H    3.008139   48.702843   82.387833
H   35.201836   78.938148    2.570883
H   83.604073   12.557419   43.097099
H   60.560944   70.037132   29.127094
H   42.195930   42.856342   45.356209
H   82.402817   82.202263    5.568603
H   77.342957   34.099972   10.122119
H   64.046799   25.731901   93.690468
H   61.061501   12.006023   27.082830
H   75.366203   55.341309   97.127975
H   72.521980   25.657907   89.726913
H   31.143301   38.273651   77.276016
H   26.290474   13.653343   99.166664
H    7.623276   76.113083   92.876251
H   30.838713   89.973221   68.226974
H   17.024195   52.257435   47.077049
H   95.559929   18.464006   56.317650
H   26.153526   80.959274   57.524139
H   49.797947   82.473488   38.468468
H    1.189790   18.219585   14.227959
H   67.677750   48.044930   61.742325
H   36.402847   96.581390   14.502592
H   69.911903   17.614983   40.982891
H    9.789690   49.621094   92.766609
H   93.141502   93.978279   76.656212
H   13.498766    3.762176   20.851654
H   87.128288   96.653893   22.537201
H   64.471237   18.313883    5.222908
H   55.703415   47.150475   42.129604
H   85.565613   74.857483   12.880227
H   84.266083   14.356796   13.993135
H   37.867146   54.982025    9.864764
H   21.078941   97.318169   81.767509
H   68.662498   24.655289   17.612234
H    7.989772   86.008980    6.866194
H   56.705196   82.711243   93.271919
H   12.910706   30.136551    6.202385
H    3.778994   59.804462   90.610832
H   42.919315   50.954414   42.819824
H   17.256666   76.858337   17.377110
H   84.768593   71.178650   10.366903
H   80.313538   68.849045    6.015864
H   65.604683    1.750994   72.471161
H    4.157589    3.613586    3.947586
H   33.846970   44.859749   62.506020
H   94.617859   76.055763   95.128807
H   59.075558   97.078117   60.477371
H   99.427254   79.589432   22.419212
H   94.625107   84.211792   53.227657
H   97.946129   49.011429   11.660919
H   49.768421   28.623377   51.971405
H   25.345810   87.957184   96.905441
H   68.910629   83.560699   85.274155
H   80.409187   20.707268   47.588139
H    7.201893   41.537487   76.476303
H   94.594009    2.517044   71.595642
H   79.544617   40.467613   28.381775
H    2.249175   74.571793   83.857666
H   52.751957   18.421143   60.430428
H   74.959320   70.030663   77.626022
H   54.079483   98.856560   44.323666
H   43.529613   12.721085   99.301430
H   70.961365   40.801563   44.260883
H   26.129129   51.062050   25.333300
H   36.948074   91.834473   41.136490
H   30.383188   96.238274   82.763611
H   68.158455   28.610287   12.293047
H   83.658470   47.073967   90.361717
H   76.825325   17.011850   86.820953
H   77.628098   99.464554   77.566719
H   54.254066   48.933750   37.535656
H   33.560066   37.811501   88.900505
H   39.425186   18.446316   25.712246
H   56.126949   20.537598   30.660278
H   33.514881   86.787071   27.902412
H   92.410759   26.495770    7.653578
H   31.670109   22.019354   58.835335
H   16.592642   60.388016   27.357058
H   71.059227   31.326290   12.544211
H    5.733027   33.256012   95.106834
H   29.037724   81.959343   74.776001
H   66.823898   27.644642   98.592216
H    9.976135   90.142563   10.948214
H   94.334793   60.865906   29.446083
H   89.500084   54.328484   49.496269
H   21.908953    6.051045    8.644312
H    4.745495   73.420891   34.748714
H   65.935287   61.020466   80.835037
