100
TIME:    4.727, STEP:  4727
H   97.655190   88.531410   94.818314
H   69.927162   61.014580   76.158997
H   61.007507   13.983390   67.858910
H   82.270020   37.898674   81.060555
H   52.831741   51.647400   37.535431
H   54.722126   96.086983   46.877125
H    5.228972   80.527618   60.110561
H   48.353416   97.548157   74.177025
H   37.429253   31.811707    2.538416
H   45.663307   84.256081   92.792938
H   60.561005   56.443607   84.420715
H   75.425392   60.630714   56.455864
H   42.427414   75.739006   55.323486
H   21.027863   90.505928   16.966425
H   37.998955   47.792511   23.549252
H   11.461323   98.288223   40.659119
H   43.989967   94.625671    3.705808
H    2.151770   64.816261   35.663525
H   18.893017   76.657608   12.399790
H   65.160851    5.432882   38.168739
H   83.769844   85.629486   28.945690
H   15.562439   50.359146   16.730530
H   22.631767   56.177834   97.104309
H   79.851959   93.374603   56.005707
H   60.519318   11.284233   71.449806
H   24.997988   86.914200   45.912289
H   54.465042   45.981937   93.757423
H   33.691525   77.080093   23.020830
H   13.955363   77.962517   33.723579
H   82.247772   73.846336   59.171425
H    2.091284   45.934490   35.393745
H   64.222878   21.910866   61.661980
H    3.320191   22.632303   23.642447
H   77.828293   40.521332   72.610329
H   63.270905    1.595026   12.570335
H   83.547882   55.667698    4.566149
H   33.180092   31.423752   80.934494
H   68.614677   72.448235   56.011723
H   45.545338   78.424492   86.231094
H   17.963221   69.658119    9.944456
H   12.194954   18.379156   53.711773
H    6.784847   24.007753   24.878763
H   51.957256   91.846359   42.909828
H   77.508209   91.987732   42.916481
H   46.623119   45.387238   60.612812
H   17.102924   53.077106    2.363621
H   78.664352   81.907860   70.841560
H   56.491863   44.056534   61.057899
H    3.207432   40.959187   55.913734
H   25.017017    2.679312   53.050735
H   43.183979   13.282059    3.256953
H   34.855095   25.108732   63.744629
H    6.923572   49.417480   28.331835
H   67.222588   30.078857   40.405174
H   64.424225   72.852547   40.552837
H   99.480759    7.561378   31.708572
H   95.923828   53.151192    5.564450
H   74.073380   30.481146   91.797836
H   63.083931   38.496902   48.589188
H   47.084858   91.120590   29.163460
H   57.883575   58.743076   45.841202
H   31.144251   83.943832   81.472855
H   94.976158   84.720871    9.325890
H   67.635353   67.513138   98.799210
H   19.944426   83.306702   35.774387
H   10.958477    7.279778   25.680456
H    8.312151   11.788028   95.281113
H   53.839577   87.878983   92.180534
H   92.494492   10.134247   63.764954
H   26.155691   85.896973   91.779419
H   71.928780   73.774796    5.443101
H   84.204193   94.644852    2.710142
H   98.781570   84.489632   40.548920
H   26.148716   50.246273   22.290981
H   90.079109   35.378696   59.736782
H   37.407761   10.528662   77.861771
H   96.135635   16.841042   74.648064
H   54.063381   41.633671   75.495140
H   88.189995   39.634037   70.425087
H   67.704163   51.511990   13.685865
H    3.372054   78.184647   62.510555
H   95.997185   75.098465   91.508324
H   16.867342   86.171448   80.119705
H   75.359207   16.658541   31.678528
H   22.163687   53.209244   89.522850
H   42.500805   82.685661   70.040405
H   82.860359   59.661514   48.945175
H   32.042938   26.839228   46.584473
H   53.782578   30.979876   89.530037
H   48.408703   14.793076   93.196732
H   17.471031   28.676617   33.287395
H   28.049028   50.994659   23.597486
H   88.463463   69.353722   84.550705
H    4.109656   99.959625   45.535557
H   74.863640   26.313644   24.707390
H   84.352386    9.067867   23.293465
H   87.395561   38.953365   65.334839
H   24.216764   56.485260   80.393456
H   83.529816   57.226536   49.101830
H   32.823055   57.328808   42.373592
