200
TIME:    0.842, STEP:   842
H   27.969244   60.477085   25.633404
H   33.329651   41.666672   14.336400
H    5.520280   95.487595   74.999931
H   38.134720   84.010078   28.757545
H    8.818555   98.986847   45.003189
H   70.034485   36.475769   47.731094
H   12.081130   54.876991   61.303539
H   16.379110   14.880881    3.704159
H   11.875807   78.481186   33.033634
H   89.669662   66.465645   72.327187
H   33.176426    7.453925   11.985435
H   33.267151   58.091087   41.426498
H   25.949520    6.987679   36.618645
H   75.950340   55.746807   71.274529
H   90.557510   76.578819   41.497383
H   11.753370    1.162448   41.336594
H   12.526220   35.912991   86.203468
H   22.267574   12.107589   32.802845
H   85.055038    7.907691   51.345825
H   91.971489   71.437462   14.134173
H   65.309700    6.809372   98.260452
H   76.626961   71.824776   47.375977
H   76.978096   58.164429   34.691551
H   21.359257   93.547691   89.698402
H   29.412415   36.915497   23.929379
H   18.162764   89.053009   87.073906
H   10.553926   70.876076   73.286423
H    8.326436   94.963219    2.315298
H   36.423672   38.231636   34.813316
H   65.845703   36.891499   77.801712
H   12.575533   76.599953   16.930824
H   20.978886   77.615707    8.424843
H   12.577599   21.938963   80.532379
H   76.502571   64.234703   48.812622
H   19.098612   64.925888   29.639380
H   13.396688   36.196079   86.379601
H    3.542798   61.435699   90.474342
H    3.137780   60.327526   88.100845
H   30.790115   24.844242   57.813034
H   84.309479   37.212917   40.180756
H   80.683434   77.101685   21.505997
H   43.303360   30.483175   21.980206
H   65.862625   73.952721   72.681908
H   35.940140   92.472267   40.278240
H   49.346107   94.662140   66.088310
H   32.588196   98.171593   49.235050
H   91.318604   96.718414    9.377524
H   75.459892   65.541420   26.005936
H   10.361854    5.907354   61.600361
H   40.574421   20.518202   80.244492
H   63.887589   62.876503    4.011178
H   98.125999   46.059551   76.484505
H   68.414268   77.206718   15.794513
H   13.446838   94.887650   90.617973
H   51.717514   62.996643   71.304070
H   97.588799   57.518593   98.360931
H    3.712478   19.023537   43.196980
H   73.985703   72.573944   94.437340
H   15.478361   86.106674   21.686314
H   29.179928   92.608803   55.865646
H   48.469833    3.631228   24.647530
H    0.756253   17.850977   53.681389
H   88.032257   37.676804   64.575134
H   38.712456   66.011208   17.108521
H   81.025604   85.053589   42.546864
H   15.124528   39.948906   43.684158
H   63.688332   10.463529   98.272682
H   93.970238   92.818611   99.190117
H   37.935394   13.988414   54.360191
H   41.771626   52.122456   50.950443
H   58.201073   87.004227   89.384033
H   15.221420    7.998450   40.550846
H   96.600235   36.070599   79.337540
H   27.477938   95.732399   78.098671
H   86.475296   10.616557   39.306702
H   68.530022   97.823540   58.943657
H   92.883118   52.361229   63.630245
H    4.258136   16.932032   27.382179
H   16.110067   56.510460   21.596186
H   59.203907   87.309540   65.712189
H   68.918373   19.927637   92.196106
H   53.107380   57.763470   69.246819
H    8.651021   20.269735   72.665962
H    5.042926   81.544746   13.471892
H   17.470879    5.689777   40.721886
H   41.626976   64.711304   15.251141
H   62.836182    4.038544    3.151477
H   70.325233   96.138855   34.148209
H   84.112076   73.522430   79.338745
H   20.428894   13.031246   48.242550
H   16.007885   40.089657   78.076828
H   79.862114   93.817291   11.503361
H   75.858307   10.072651   78.584549
H   33.033123   72.805702   85.634499
H   40.378426   48.782997   93.012398
H   44.341835   41.168777    0.757028
H   87.471764   93.456474   24.255836
H   94.159065   38.447163   55.079414
H   23.377007   63.747559   55.014648
H   77.671638    7.709110   27.397379
H   36.725368   97.071045   97.287148
H   12.957088   85.764282   62.543938
H   35.658295   15.169126   38.914936
H   50.802361   69.050964   14.069083
H   24.540724   19.561470   44.605045
H   11.256269   97.299225   15.705808
H   90.362450   36.917164   52.671497
H   61.203671   57.388123   95.463570
H   88.095497   32.490707   28.242359
H   23.705118   19.666872    8.483606
H   55.114990   90.835472    1.219402
H   10.165667   78.483582   97.368355
H   46.638313   87.260452   80.841026
H   61.184929    6.419007   59.430672
H   43.760933    7.036409    5.664578
H   89.470787   88.187416    6.092354
H    7.823636   16.919535   91.198044
H   37.716839   56.627544   21.945122
H   41.724136   80.315247   53.787670
H   86.669456   58.689877   71.800522
H   46.837654   25.759846   67.793343
H   92.314743   13.219090   65.895828
H   46.749947   96.432693   41.888111
H   95.208115   45.656082   91.502495
H   58.903038   94.047340   72.902931
H   69.777145   78.823166   13.907986
H   80.422981   52.000778   47.805527
H   62.260841   92.291466   40.086910
H   99.876060   30.692677   71.171288
H   96.923859   21.296009   76.757545
H   72.909966   63.690948   26.417156
H   58.593147   92.022141   23.523624
H   90.471992   11.883162    1.853842
H   71.402023   28.437565   57.116024
H   34.165272   90.484985   28.753876
H   46.324280    0.854239   74.812721
H   69.889374   88.098549   85.307304
H   96.353203   45.424526   73.686485
H   62.048492   52.752411   71.407707
H   43.774040   80.218437   78.730164
H   80.420959   45.365349   34.356232
H   29.524868   59.302032   60.280483
H   35.653336   67.840553   79.079056
H   30.128151    4.736258   88.100197
H   68.598770   49.801758   68.753693
H   67.997932   72.346939    1.014197
H   58.969231   94.141472   42.971462
H   26.214470   51.009956   65.371117
H   81.278778   39.657730   91.959915
H   28.652050   95.247231   67.468781
H   55.002022   71.533737   46.799526
H   59.128670   90.451851   29.287010
H    4.141954    9.328808   82.332336
H   25.823345   14.960903   61.075680
H   37.484112   69.778183   71.643654
H   81.373055   45.021595   72.582870
H   65.612717   78.937866   87.883957
H   54.604927   27.001038   23.827766
H   84.829201   99.465897   80.279045
H   56.930416   32.381012    1.343234
H   59.869301   59.952217   67.409645
H   15.338751   19.936577   30.328743
H   91.132469    8.322807   36.981739
H   33.372055   37.864605   45.443489
H   53.190102   42.515266   15.739620
H   22.285603   45.284626   59.011013
H   64.533669   87.830025   58.603527
H   24.158100   58.322296   72.906204
H    2.253375   26.212488   35.435432
H   53.945358    5.916766   83.624237
H   67.864380   12.792994   35.925552
H   25.365942   43.086746   59.306755
H   49.304451   51.585949   73.485428
H   63.812943   60.139542   88.206268
H   43.457947   90.507950   70.925407
H   19.491020   50.916046   23.873390
H   29.233410   71.727707   12.089729
H    7.065450    9.774971   72.577896
H   60.205616    7.384658   62.094555
H   57.664337   60.912712   94.877266
H   70.427017    6.762669   27.722801
H   31.370134   30.840908   91.593170
H   37.916187   89.531540   17.993866
H   64.590950   26.334263   99.337227
H   93.307922   62.223770   75.916672
H   11.862974   41.303513   86.967140
H   52.313965   94.213188   12.604044
H   61.499588   92.724312   46.591507
H   89.184181   63.857952   73.423569
H   60.560738   54.998577   73.308853
H   76.577682   11.107254   75.002510
H   42.717850    1.289147   16.956549
H   17.472260   31.845821   71.597649
H   24.586645   87.556564   45.445415
H   64.235764   27.366428   19.847080
H   76.797867   11.860636   21.318680
H   13.462840    1.974610   23.785749
H   11.413853   85.441689   29.989075
H    3.885505   13.296339   51.093513
H    1.728909   14.597048   89.385132
