100
TIME:    9.390, STEP:  9390
H   82.314850   60.913826   90.549210
H   41.146744   13.693552   70.175652
H   41.176350   49.457848   13.115826
H   83.052689   45.783073   25.464277
H   11.056757   25.406891   11.104830
H   82.406982   91.035210    8.668685
H   60.838558   95.395012   24.763409
H   81.850815    0.957008   46.035591
H   22.803749   83.481674    9.019800
H   18.284132   51.211491   75.377205
H   26.820099   44.067993   35.255028
H   97.449348   94.362953   24.538311
H   44.980576   93.624718   91.955338
H   90.145248   76.133278   71.824013
H   94.656929   31.271736   99.336693
H   23.971893   90.445114   53.588928
H   69.019051    3.047252   28.197096
H    1.866438   37.921410   74.021561
H   91.520050   72.276642   58.061802
H   39.531940    6.406759   55.647453
H    7.060511   21.413309    2.383121
H   62.608791   56.549347   19.633011
H   60.372169   18.260408   63.691605
H   46.591770   49.159882    9.690701
H   93.744858   41.486923    5.884399
H    3.330853   49.286301    7.240777
H   52.369354   52.146946   86.278122
H   40.240677   94.733170   77.156944
H   15.347840    1.026579   13.301888
H   61.047203   58.436996   29.866230
H   85.611397   64.074203   66.472183
H   58.647633   93.077148   29.984718
H   31.776215   81.465546   43.722313
H   74.851791   13.185148   76.165901
H   47.264656   48.715218   96.347260
H   88.894394   20.897799   89.906197
H   80.421844   60.653084   48.360554
H   75.884789   87.112190   85.067421
H   48.718235   76.825401   34.351273
H   78.759964   33.122765   76.820938
H   93.511948   78.375214   63.568813
H    8.875845   78.426056   59.335590
H   92.097504   19.816746   79.721855
H   79.765785   70.260170   98.838814
H   42.142822   61.423656   59.641537
H   56.919556   42.010693   21.309248
H   15.104356   35.499660   15.605267
H   56.760738   92.083954   49.577152
H   39.508377   54.769627   69.904846
H   22.879606   73.660088   26.983715
H   43.566486   63.154160   51.325119
H   61.483135   92.416611   57.641060
H    3.639926   76.455139   57.517273
H   59.236923   54.000771   46.170479
H   93.148720   81.499817   80.205383
H    5.290993    2.656355   72.969025
H   91.537582   18.602272   49.054634
H   26.856894   90.117195   71.690086
H   30.848274   35.530762   90.615013
H   39.375324   49.535519   96.536659
H   52.031635   41.892422   82.281425
H   65.648460   40.541275   70.488976
H   11.547339   66.526268   89.569977
H   87.834473   92.914307   72.203140
H    5.027327   10.878925   70.018410
H   24.506638   75.468925    1.394484
H   34.191666   72.997070   20.411510
H   31.734360   54.561775   15.098907
H   24.897974   75.080826   71.309387
H   20.731003   20.280375   81.927582
H   23.850273   56.503468   49.516426
H    0.024082   39.815819   44.328678
H   94.746399   53.841343   20.989086
H   23.499783   55.125988   45.231300
H   14.796720   42.141514   13.257612
H   47.644707    9.383269   64.100052
H   19.595127   13.071438   57.278381
H   73.131310   36.738914   33.024689
H   11.799048   25.937328   22.449656
H   39.030479   97.500923   11.964285
H   94.640419   26.426218   41.210930
H   45.913635    5.371412    1.436908
H   11.811453   64.152260   24.199024
H   96.166405   15.681728    5.786587
H   95.116562   61.517868   37.498383
H   35.180676   53.965744   93.853180
H   94.291710   20.622673   71.294594
H    7.045566   53.679237   98.219666
H   50.554447   71.352165   51.392708
H   36.136616   22.945770   59.884331
H    8.300474   80.462448   31.761742
H   73.063812    1.697574   12.445146
H   87.370697    9.260534   45.147697
H   54.061867   82.798691   61.040417
H   94.242081    8.629971   31.856722
H   69.497086   24.930922   82.443085
H   17.268433    6.551624   97.160233
H   20.152437   51.076733   90.372643
H   61.395073   77.350487   58.527569
H   22.460884   37.672001   93.171112
