100
TIME:    8.902, STEP:  8902
H   15.316344    5.665845   90.995987
H   54.624527   87.250198   39.404606
H   32.788105   14.349528   18.844353
H   82.970779   65.888054   52.214615
H   15.429590   86.291809   24.335369
H   89.972412   91.563896   60.341637
H   86.416100   62.445007   86.601158
H   20.206650   58.737080   90.841408
H   34.799721   30.401699   39.738071
H   31.614851   44.204533   56.270027
H   72.212677   24.432846   82.263451
H   16.075729   69.901894   59.274849
H   76.098618   23.161720   40.451073
H   14.307900   77.637428   34.686428
H   88.729683   74.862312   22.803932
H   43.593628   33.127586   94.096741
H    8.261115   70.767876   83.772530
H   91.427383   61.667625   90.939529
H   83.917389   51.804577   32.353489
H   52.678364   16.770132   22.422113
H   36.019417   69.995758   15.629087
H   15.823754   55.901520   61.190750
H   66.887672   22.227419   77.653397
H   91.933655   43.321991   45.934528
H   11.198321   80.187454    2.282146
H    5.632755   63.672531   53.164768
H   94.449364   72.432816   76.597946
H   81.416504   71.954971   61.027596
H    4.736091   56.750973   36.368980
H   42.334679   70.514877   91.072418
H   66.407417   20.315586    5.081169
H   27.834888    6.560795   75.161354
H   97.401138   17.169697   99.759415
H   54.233017   57.907501   96.725105
H   59.409554   85.663704   66.658905
H   46.472889   82.674957   91.440132
H   33.616890   78.524178    9.908067
H   96.056786   96.040291   50.629776
H   69.317436   87.458702   81.642654
H   24.724886   78.808266   38.425392
H   26.862486   61.629036   52.071743
H   50.001862   76.512360   34.424030
H   87.897797   16.888493   44.473186
H   10.922276   62.068375   51.123997
H   84.473053   80.672813   17.879656
H   63.215393   32.702831   19.326674
H   11.289063    8.958979   10.918758
H   56.730953   87.057709   19.382450
H   25.245010   95.187233   89.369446
H   12.636930   66.228691   61.106060
H   42.890339   10.212677   47.269318
H   37.766705   37.699345   89.674995
H   93.519478   73.625549   85.858597
H   70.538818   61.964577   24.636448
H   32.004890   38.733582   76.057800
H    4.683189    3.169683   89.581696
H   60.598663   32.683205    2.641652
H   63.194519   36.203499   84.259422
H   92.359825   14.909806   28.078688
H   71.577675   12.024838   10.416527
H   21.245604   64.585083   20.326519
H   82.968529   45.083511   92.567223
H   78.418060   99.826073   23.033600
H   54.325100   90.255981   85.450089
H   85.659012   49.856525   24.573400
H   54.484932   99.728935   72.540077
H   73.344254   56.125515   96.849960
H   65.443710   26.652729   91.769684
H    0.575144   10.145378    1.913820
H   10.819991   95.769669   82.962616
H   39.348743   89.707314   55.369209
H   40.209114   56.018944    8.559402
H   26.564743   77.980644   33.502575
H   34.241055   86.012123   74.227150
H   91.289948   41.422947   76.257309
H   36.106682   78.108269   96.938187
H   75.274246   55.310513   48.622070
H   50.206425   68.646263    6.072812
H   88.396889   27.370739   17.002695
H   62.962852   24.085436   54.005943
H   85.086830   21.377634   12.043689
H    9.295523    2.203482   42.262520
H   80.945763   55.991123   77.724876
H   62.591240   73.922585   50.356541
H   18.877670   92.047348   84.804657
H   46.413403   36.038803   59.965118
H   61.699299   56.104240   48.024940
H   99.197685   92.727577    3.278012
H   40.427494   98.523674   55.383919
H   79.282822   43.024689   42.441399
H   88.329185   54.111431   21.456078
H   36.956753   64.994873    3.148232
H   56.088840   94.618828    7.409907
H    7.609477   53.246937   27.045977
H    2.679195   52.343410   20.644472
H   29.190323   44.201233    7.649052
H   56.003319   78.546349   25.226440
H   21.094393   26.931751    0.171923
H   84.642387   75.243187   99.400749
H   92.149307   50.192936   40.182423
