100
TIME:    1.475, STEP:  1475
H   17.574217   86.756363   97.795609
H   60.240440   84.717537   71.042809
H    5.108633   80.021690    6.020806
H   81.724182   71.879906   59.314892
H   81.959610   90.985283   25.710915
H    5.143711   99.610115   24.819639
H   75.664726   60.938000    5.799755
H    3.954208   16.208714   72.765053
H   17.369682   44.478210    7.240470
H   34.531090   37.562172   65.451653
H   63.054123   25.592106   97.670303
H   99.541733   97.625023   87.937279
H   49.436974   72.467781   78.525566
H   82.048439    0.529618   69.489143
H   98.441002   38.273380   79.871109
H   42.218185   82.722160   10.603137
H    5.479716   79.541092    7.651013
H   32.664436   22.971603   48.410934
H   68.234474   40.232094   41.070629
H   52.777611   74.489853   16.757456
H   76.748047    9.375908   17.210621
H    3.780400   46.046768   93.661110
H   66.050652   82.626137   90.147980
H   81.998024   54.372044   97.527267
H   76.829704   69.192909   47.445091
H   39.895718   83.658203   50.920380
H   34.887665   81.163834   29.236006
H    8.086075   25.287716   15.527659
H   43.243469   82.915680   87.448784
H   57.551174   54.333755    0.647335
H   74.124062   54.315414   92.693756
H   58.889561   11.761212   62.715935
H   74.255447   60.564156   30.676603
H   40.423958   38.547707    9.612188
H   44.108391   47.421516   14.546364
H    0.799836    0.352206   15.568898
H   21.271042   50.518898   24.689398
H    3.028019   31.957447   26.528278
H   84.410172   49.021095    0.754490
H   24.265257   74.099236   54.084805
H   34.441109    6.794073   77.094894
H   99.056580   78.057335   72.098114
H   23.945875   72.345078    8.014615
H   85.170921   37.491165   24.952036
H   28.710548   73.693405   82.329666
H   59.057972   91.050148   89.160591
H   51.654713    5.307661   40.226997
H   56.318188   10.569906   59.842571
H    8.147801   10.290459   85.636002
H   56.825260   53.199841   80.501060
H   43.432087   27.242098   68.969025
H   76.815376   26.869730   77.231400
H   39.476692   30.561279   17.203510
H   42.534138   83.140190   96.905045
H   23.334938   87.811371   12.922539
H   95.411789   10.981792   42.414322
H   89.760605   46.986595   96.272118
H   16.225693   37.592445   75.562698
H    6.607780    1.090252   98.246445
H   61.682537   41.161716   21.657066
H   52.745037    9.978452   99.393944
H   46.560516   14.215897   28.615417
H   74.281952    6.569055   32.367531
H   44.325203   49.818123   87.093987
H   90.867226   43.038486   32.924778
H   10.733662   68.946449   33.398861
H   69.226517   99.358521   38.276012
H   78.477364    1.893342   36.716129
H   30.415962   43.802231   67.724342
H   60.264648   22.330912   98.627197
H   75.194176   95.041344   44.457127
H   52.346004    2.572645   64.615532
H   10.818707   45.345936   23.927212
H   97.727135   56.039734   15.544960
H   33.287842   30.742449   13.212780
H   60.531788    2.105764   96.681328
H    0.874971   98.703598   17.133440
H    1.278510   54.275009   95.897858
H   32.253456   49.181492   34.135963
H   27.188858   28.621950   93.848701
H   39.746601   44.541210   68.145943
H   51.994419   53.860428   63.438919
H   11.125716   31.875059   70.386353
H   51.637615   38.379253   28.705025
H   80.508926   56.623230    4.767792
H   17.342701   63.236347   44.211815
H   65.666634   96.108398   93.876694
H   79.699753   87.202652   80.410728
H   86.292427   12.046832   16.131878
H   35.928482   48.590996   76.944298
H   84.385597   53.076405   64.611038
H   87.422020    6.440393   61.624832
H   79.923073   71.825851   33.025436
H   89.791908    2.701771   26.270725
H   31.091339   17.607712   49.980064
H   15.750580   37.484306   91.263107
H   45.523544   52.327633   52.360611
H   12.280843   28.796417   32.436775
H   38.446312   43.208439   21.497501
H   30.843887   40.816639   55.622383
