100
TIME:    7.303, STEP:  7303
H   23.450022   52.300667   92.459915
H   98.786362    0.601536   38.582752
H    5.302701   99.311577   37.614956
H   82.702393   31.767769   39.860531
H   29.757788   58.124996   67.690964
H   14.767077   93.296211    1.986337
H   70.218567   54.472202   61.557262
H   45.884895   20.404591   37.656799
H   74.106194   84.139648   40.389126
H   75.288765   21.245256   93.659737
H   20.947754   60.094608   36.287727
H   77.106720   89.752426   73.093651
H   78.061607   19.944607   99.354927
H   93.480721   82.565987   13.001026
H   69.308235   17.692863   99.702423
H    7.885089   72.981873   26.828375
H   36.843361   65.006088   38.209255
H   57.239010   39.474930   46.366226
H   59.008656   84.723022   48.111294
H   95.763443   50.723804   13.554758
H   30.906342   29.180588   59.024662
H   62.526062   53.778824   97.360397
H   88.236626   35.227394   23.403212
H   40.503967   24.193331   64.690613
H   68.387154    6.994881   90.474220
H   13.173046   10.809605    3.637437
H   32.332729   38.899948   44.872150
H   16.336075   97.319069    8.169885
H   69.967506   11.677481   11.955660
H   81.022919   10.090509   63.956108
H    3.473335   76.929306   31.588890
H   26.873013   50.735432   23.188744
H   84.770638   34.159615   55.708870
H   86.670555    4.446386   64.087448
H   99.204002    6.730432   69.373260
H    7.475203   57.431198   96.466286
H   80.251389   37.084595   83.913239
H   62.143921   25.303440   37.793503
H   36.810604   22.296309   36.597015
H   75.331902   28.500650   12.618943
H   36.142761    6.768289   14.400122
H   84.756813   70.241867   52.790180
H   74.136871    7.296431   28.977215
H   13.023184   35.223106   94.784416
H   23.174995   43.752224   81.047310
H   83.856316    2.210040   12.830492
H   98.789352   22.000282   95.565437
H   56.633358   70.588516   20.445766
H   78.503242   27.615635   53.155746
H   79.067627   41.889767   72.907265
H   43.000134   64.586029   30.410320
H   60.054470   86.074646   94.640137
H   60.360165   64.354004   78.722542
H    7.573700   88.047852   54.077225
H   59.319290   98.604408   62.466290
H    2.691637    4.851676   44.015442
H   59.229046   78.821342   50.563560
H   82.259445   87.208916   25.447256
H   66.247612   47.344990   50.834038
H   77.095558   89.120682   55.895897
H   20.379435   38.948219   44.996109
H   39.720192   59.966782   64.918411
H   69.862297    8.939132   32.681824
H   44.523952   81.545609   28.862820
H   22.190632   77.566376   75.665443
H   52.712555   79.219627   77.994202
H    1.634681    0.847234   19.651167
H   75.897530   35.204338   15.328231
H   20.881981   25.039322    2.200255
H   78.344902   15.456158   86.354050
H   90.128578   98.505600   74.546669
H   71.882454    9.111251   91.353462
H   30.822439   57.075085   74.501770
H   69.438210   87.212463   69.234161
H   14.264329   39.068462   55.020039
H   98.302330   75.627464    4.530761
H   30.051392   93.706856   20.260984
H   75.088547   73.195946   17.756266
H   11.719592   32.067509   99.158241
H   41.378616   11.190248   91.761299
H   53.783165    4.835244   16.473221
H   89.307991   91.831726   76.034721
H   79.806648   29.250036   25.443810
H   52.583469   37.093014   96.401543
H   96.734253   92.075096   39.808357
H   83.212631   77.306717   48.925751
H   54.905643   72.364876   71.778557
H   73.481346   20.680185   19.857155
H    7.240606   87.553230   68.461678
H   20.655180    8.809391   85.281296
H   22.891590   67.771172   87.687790
H   18.646944   44.734467   72.675301
H   53.589832   46.646366   83.756783
H   53.072556   56.237389   19.228830
H   30.328846   95.570755   83.901978
H   97.119415    7.344845   90.239311
H   82.924736   86.784042   17.186592
H   24.180841   47.811131   32.274597
H   60.814964   68.338326   33.334614
H   92.829170   91.227615   94.218735
