200
TIME:    0.273, STEP:   273
H   10.485189   62.365475   15.903856
H   28.258415   33.359928   91.236847
H   17.446016   70.582558   46.973625
H   18.954889   77.359474   43.636753
H   14.859774   84.565628   53.184040
H   88.545044   51.919323   64.572563
H    3.837336   55.280716   50.290104
H    3.628138   90.311401   23.900970
H   88.768646   87.011497   46.914383
H    9.699535   74.436638   94.770805
H   13.343919   95.299141   94.004501
H   30.914261   42.903660   14.314674
H   11.984118   88.103081   59.939171
H    2.843842   53.346165   43.855984
H   18.028606   72.198624   42.897396
H   28.338501   24.606682   53.611126
H   85.759827    9.264051   13.829847
H   35.778545   84.753441   42.932861
H   66.123390   28.507204   42.969624
H   90.161240   79.251488   36.191479
H   58.481110   78.405586   24.328594
H   89.294365   50.075737   69.303001
H   94.017014   62.301521   48.344391
H    9.307208   88.360046   91.482605
H    4.680811   14.031205   44.232822
H   18.633776   63.800697    5.866636
H   99.534752   59.458912   50.408691
H   95.267609   71.490753    0.818103
H   12.458489   55.526680   38.145130
H   91.558189   21.648373   97.484375
H   13.318408   52.827946   16.235159
H   31.325958   64.279770   94.415588
H   26.325943    9.695624   73.582237
H   95.334373   63.613922   38.867104
H   46.404804   88.437424   33.968075
H   31.983303   49.169537   79.854889
H   87.211624   73.716743   86.202675
H   31.282583   45.608940   13.683699
H   51.848915   45.218933   45.165165
H   89.766273   39.552784   62.407318
H   80.514130    3.682264    2.619622
H   14.981859   42.414898   38.852634
H   76.107681   87.023849   51.553646
H   37.207748   64.836662   19.928570
H   29.904495   77.301979   45.554787
H   40.595402   12.979678   43.046776
H   80.596024   24.595440   96.902596
H   89.312424   65.550102   46.461319
H   88.356590   27.499859   61.190125
H   60.936470   17.950426    4.316283
H   77.423218   70.078430   26.560913
H   19.876623   36.265972   64.251213
H   53.066647   93.477844    8.359950
H   21.915453   82.880096   82.191849
H   75.802078   75.651024   89.706100
H    4.882618   71.537094   79.728821
H    5.336306   16.870338   49.300602
H   67.769211   59.346539    4.707831
H   27.484829   75.114944    7.924628
H   42.340050   95.803871   66.384193
H   50.312641   14.732567   41.272350
H   90.529610   16.503057   49.319084
H   72.356453   25.890087   83.771591
H   24.925596   65.199417    4.404294
H   71.878853   76.571030   19.279026
H   37.445225   17.843201   33.456467
H   84.942482   22.465906   86.516914
H   97.156624   91.524956   87.924896
H   17.696301    6.299195   61.562119
H   45.047005   42.205154   50.980831
H   58.450687   77.162895   74.164047
H   31.213041   22.954422   44.533829
H   78.541153   26.233608   98.390739
H    8.940453    8.239343   61.533257
H   79.546860    1.405773   66.061058
H   54.147873   17.911537   62.661831
H   95.288101   31.178709   71.678795
H   25.332960    6.570850   46.839104
H   11.781448   31.163700   34.207569
H   67.778847   90.482903   92.696625
H   44.768696   29.544315    0.643788
H   28.087473   67.996826   86.837059
H   10.870964   14.028283   89.314178
H   23.597939   62.938683   94.927094
H   37.733082   99.672806   56.846996
H   25.596937   84.619705   27.095867
H   37.334240    2.852874    1.846977
H   75.057060   17.316147   12.686877
H   66.697273   72.132744   77.286423
H   23.278843   87.526306   54.502453
H   39.859470   35.177673   80.607704
H   83.825562   88.824997   99.087906
H   48.827339   16.489920   94.789970
H   58.548088   93.248062   70.010788
H   25.961092   56.479813   69.314194
H   67.905464   28.447109   27.510086
H   79.753242   13.137774   99.750465
H    5.987503   28.951502   48.906017
H   36.270149   69.447456   52.998196
H   67.778214   98.463654   27.258463
H   11.338568   81.338806   70.493721
H   91.799431   77.155830   65.682571
H   23.863455   35.963974   30.964022
H   23.461613   68.000412   91.472832
H   25.294994   27.039059   26.157433
H   88.729538   25.157211   42.345783
H   67.221542   30.506536   56.105652
H   64.556831   35.541409   17.465572
H   73.635208   39.673100    0.728309
H    5.426811   27.600279    5.698775
H   47.628719   95.780014    0.819069
H   87.319023   64.175232   90.887054
H   56.520885   80.657600   93.217575
H   63.112389   18.685907   74.102997
H   62.749016   83.342728   25.615587
H   12.691744    4.831900   80.423103
H   31.218151    8.907383   84.564804
H   40.603687   28.620773   33.318871
H   20.115589   58.952572   81.908691
H   71.653503   47.333492   50.573788
H   40.898994   21.978725   86.438477
H   16.865211   26.698284   49.158863
H   33.031990   20.430782   25.008095
H    3.591105   66.131226   16.420107
H   75.928932    8.135039   91.721710
H   48.931347   63.255402   24.894218
H   94.566368   49.344009   69.780304
H   74.706848   87.828789   35.281284
H   92.873825   51.289146   84.138229
H   69.344688   23.992933   67.063812
H   49.941071   84.007416    4.672459
H   80.433350   86.378677   10.105206
H   92.329994   84.200272   97.620628
H   99.302437   13.849061   50.113323
H    6.056310    0.773437   54.900475
H   61.479149    1.584498   83.195435
H   68.947350   86.648613   56.981461
H   91.499825   63.190582   82.676956
H   47.175797   44.795128   71.542282
H   43.465820    7.507210   94.540543
H   52.251392   62.098217   15.975906
H   55.719116   42.013500   47.016174
H   53.944668   57.368385   98.271172
H   56.200951   25.333109   78.671272
H   41.853092   68.672630   50.147633
H   47.149258   62.544353   28.265682
H   45.511742   96.633278   47.045609
H   41.751358   72.190308   68.635643
H   66.067474   63.414539   97.616402
H   10.513907   89.035080   88.762001
H   75.057045   61.870388   51.095070
H   35.176510    6.196610   47.118183
H   77.708778   30.604664    2.306085
H   10.782243    1.900210   75.137039
H   14.921112   54.750542   61.350285
H   64.481735   43.610729   55.076221
H   59.656689   61.873169   81.146530
H   46.515240   36.130424   10.497255
H   10.871467    1.609989    1.381157
H   63.309700   55.597351   79.507477
H   54.280102   83.068710   82.538467
H   42.054714   22.885286   35.258091
H   66.639839   33.131207   37.218330
H   12.485976   21.149101   69.786865
H   58.638214   23.208109   10.148793
H   12.482255   63.389290   62.121429
H   74.331589   97.033211   52.571533
H   23.661041   32.433994   49.377308
H   94.521362   28.062893   36.779011
H   27.978916   10.210682   90.031738
H   78.734558    6.026266   35.973305
H   45.022926   64.221497   57.559452
H   38.310551   76.036270   89.495499
H   70.818474   73.753220   75.008347
H   69.904083   94.788300   97.679764
H    1.926233   47.839104   23.318405
H   35.078735   53.952023   88.288422
H    2.022472    9.232330   65.302170
H   74.757637   20.612421   68.748878
H   84.730743   54.809090   86.850525
H   80.815331   86.371979   40.952030
H   19.893284   30.146328   70.820885
H   64.115967   90.131516    6.723168
H   52.199471   25.281456   78.404320
H   85.949715   86.903069   78.260880
H   99.951286   36.502228   84.119362
H   32.501068    3.959297   99.996292
H   88.835655   68.622383   26.681227
H    5.662722   61.320564   66.920563
H   50.213665   58.093800   66.119949
H   49.396729   29.932545   79.065804
H   47.382389   85.826004   24.204058
H    4.833484   18.309107   58.562153
H   34.527012   64.848137   33.978333
H   83.762146   52.781349   21.708338
H   75.408707   10.464421   29.114256
H    9.680634   86.459236    4.580609
H   27.950436   96.750320   46.036045
H   11.473248   11.704231   76.541191
H    7.663551   33.874756   97.290321
