100
TIME:    5.783, STEP:  5783
H   26.241453   91.691673   93.851517
H   40.762123   18.235403   42.742397
H   79.165848   89.956558   55.462246
H   82.447266   94.389862   23.176579
H   43.373245   36.290375    8.904881
H   38.342976   94.942940   51.456669
H   49.882389   51.834400   42.691212
H   65.353897   88.905106   77.218422
H   11.470757   30.281616   36.067513
H   16.807211   99.418678   34.145573
H   62.334457   98.934326   82.701393
H   35.120300   13.562338   81.289040
H   75.041702   11.880802   50.393730
H   68.741295   87.251045   97.328072
H   50.841240   53.466476   72.790039
H   69.001877    5.926675   53.001678
H   59.072670   64.469810   99.837646
H   24.733519   13.437481   99.057655
H   35.339832   20.956652   68.031479
H   36.712524   83.004189   10.066095
H   21.105293   80.501587    0.284203
H   16.802185   51.761002   26.802383
H    8.531579   47.589455   66.891907
H   81.734230    6.009737   77.577942
H   22.750774   27.538910   79.248634
H   20.184145   55.700630   46.610039
H   63.405418    2.083524   14.709312
H   44.588802   26.370583   57.930252
H   36.916969   73.771057   83.807068
H   22.738934   47.710594   43.120163
H   43.653244   40.628277   51.846382
H   30.899265   92.734940   63.902779
H   77.704460   45.370201   18.775267
H   22.447281   43.745232   28.121912
H   37.022369   21.769274   76.871994
H   75.344009   38.378441    1.244741
H   34.464180   92.748657   64.143105
H   24.971004   53.123875   30.531811
H    0.968500   55.414726   83.896843
H   18.499823   70.798897   93.028709
H   40.024139   54.609871   78.590675
H   12.854356   64.281174   75.190819
H   61.053204   98.178879   19.186543
H   10.080393    9.710409   46.166756
H   55.022602    3.725758   50.977520
H    3.476704   73.218704    6.655261
H   86.914352   39.337723   80.976814
H   56.548260   54.932999   26.397161
H   34.072578   53.500969   13.787198
H   47.164722   18.752310   79.193161
H   43.104504   11.332006   14.389216
H   86.175896   27.119926   94.417976
H   28.828793   55.540527   67.002800
H   42.769623   12.846072   87.004784
H   80.343681   65.400421   49.535992
H    0.798460    6.450568   95.759827
H   62.867424   22.680977    5.998846
H   95.441803   30.755007   64.598618
H   46.369095   83.114754   67.520149
H   77.399902   72.289459   99.128319
H   24.496880    9.636278   63.506481
H   93.667946   74.114731   33.691864
H   66.669563   12.661289   36.912781
H   40.147911   73.265579   70.133682
H   61.861969   98.965103   34.115055
H   46.087059   54.782982   88.119423
H   23.587795   48.294666   46.265945
H   80.894310   48.273594   42.663441
H   45.126881   34.256828   97.532074
H   47.547173   39.010300   89.555786
H   38.397041    1.925280   92.776649
H   97.132767   59.598465   80.026535
H   29.929398   32.255272   13.470551
H    2.905284   83.412621   59.547173
H   40.992649   36.885288   39.789078
H   62.375290   78.209526    6.807505
H   92.013756   25.313730   93.323357
H    3.676188   72.585182   33.813324
H   38.828381   36.532230   82.203896
H   15.921326   93.991829   22.710430
H   24.036333   89.109451   25.625120
H   75.241486   81.974411    3.192634
H   83.662575    3.831269   80.687500
H   48.010445    7.022668   35.229214
H   70.744972   87.154869   87.155472
H   18.193920   21.472561   43.372360
H   53.388222   82.881569   99.299179
H   49.035545   42.312260   35.617043
H   75.696640   72.184120   80.893318
H   55.044453   71.348923   30.946199
H   60.686852   85.696762   55.588177
H    6.182336   30.415792   43.714920
H   56.154892    1.036666   66.212845
H    6.172708   64.021065   16.737719
H   56.607292   31.723774   48.972782
H   71.573669   67.367279   68.749420
H    3.575340   99.555412    4.603503
H   27.114801   72.600098   62.785461
H   33.224152   61.778538   60.651268
H   98.416397   30.234062   40.646191
