100
TIME:    7.833, STEP:  7833
H   87.608635    3.697813   91.974686
H   84.148605   29.322666   72.001968
H   14.413034   37.440857   31.392086
H   82.791351    9.930420   10.808710
H   25.008604    0.606828   53.320084
H    6.547492   92.722023   54.474892
H   42.442318   90.258957    3.003965
H    4.227943   66.254936   88.993568
H   61.077782   33.182465    7.027054
H   60.812752   28.855272   14.412632
H   71.648453   81.420441   85.235123
H   56.879311   16.318142   35.367058
H   44.265373   87.864868   46.684597
H   67.237892   80.932381   53.335728
H   75.745613   70.350662   74.211700
H   86.574814   26.626282   82.833282
H   94.223671    0.063919   86.457245
H   68.571533   13.685074   27.995804
H   67.263199    6.955732   76.033951
H   81.481522   39.470524   49.639656
H   99.455406   76.417786   44.641651
H   13.337678   54.482407   52.225967
H   81.160362   30.917448    8.238286
H   91.259232   30.533663   25.326782
H   49.430855   64.965240   94.388405
H   10.674114   95.186630   53.762894
H   86.630737   16.867876   55.389500
H   71.615196   22.057653   25.689142
H   81.491707   59.762959   86.902458
H    1.345866   96.972366    6.089966
H   24.332739   24.456223   89.657051
H   60.337673   36.093632   74.124031
H   22.102583   95.383263    3.455456
H    9.064313   55.874977   41.758804
H   86.013847   66.602013    1.616922
H   53.546848   98.942581   94.800331
H   31.085949   17.673922   25.674955
H   40.239853   15.602936   75.193779
H   14.437552   10.749868   85.236671
H   25.412735   78.884445   54.319435
H   99.922058   24.952299   26.886564
H   40.091438   72.320267   79.848137
H   78.698029   10.475695   67.258125
H   79.179688   44.118980   46.604290
H   77.200523   22.842876   26.401268
H   77.014580   12.317210   14.983698
H    2.931761   50.823616    0.652675
H   56.665707   76.047348   53.239193
H   93.998238   83.721016   32.011871
H   90.195557   49.956707   35.848831
H   42.963741   13.417845   35.997971
H   85.812073   36.894405   59.849182
H   71.351952   67.427124   47.942818
H   95.299896   79.402679   77.465286
H   17.119785   45.051834   66.972214
H    3.351751    4.294168   25.972992
H   92.830612   63.528526    0.970833
H   42.794113   37.157494   11.794423
H    8.046093   69.741341   10.146458
H   42.121132   29.858578   40.821434
H   53.812450   14.301222    3.674472
H   20.909462   55.033615   40.936096
H    5.842453   72.773102   96.338135
H   80.918327   84.432724   14.471829
H   43.228432   35.235439   25.022390
H   20.154392   52.871666    9.332232
H   59.112335   19.170067   45.239910
H   39.286964   65.515007   40.665298
H   47.298683   86.956917   68.961823
H   89.108910   42.075062   85.229935
H   73.299202   62.444962   68.190163
H   28.239201   91.513084   30.202265
H   96.264404   30.860472   60.914295
H   57.770603   53.668179   37.742767
H   39.794083   39.848873   95.205124
H   10.832206    9.594215   68.866737
H   78.186241   47.835068   29.660284
H   99.988907   38.541668   47.027737
H   37.133659   30.510731    5.072594
H   15.387759   82.318565   46.101204
H   64.158989   10.318337   48.150620
H   29.078854   95.268768   31.695766
H   13.329007   38.113560   75.918854
H   89.047203   82.445801   47.993153
H   70.928131   58.918369   88.431587
H   71.017197   96.772507   85.730408
H   90.303139   33.829567   97.050926
H   82.005211   78.270142   14.361931
H   18.241127   58.043190   64.126961
H   73.796967   87.004776    4.228934
H   44.581348   96.391624   98.880417
H   57.861576   84.596069   82.776161
H   87.563980   62.549763   24.742495
H    4.295544   88.391930   54.965923
H   21.164074   48.097778   96.081238
H   40.895294   86.415771   62.864281
H   40.855339   17.199234   86.705482
H   23.157816   74.035286   21.633970
H   35.566856   70.626991   88.941185
H   25.749292   77.625015   43.162853
