100
TIME:    4.218, STEP:  4218
H   32.075592   35.209167   95.284317
H   83.984932   33.431061   44.064484
H   52.258293   77.364006   73.831520
H   82.184586   58.868828    8.959455
H   57.390808   10.848804   51.336899
H   62.617001   96.638420   96.468407
H   31.905384   46.157848   20.306101
H   88.359810   53.511761   20.910809
H   49.941444   80.749832   34.578655
H   59.573509   76.947594   72.863525
H    7.906937   35.962757   33.450642
H   94.849968   35.117027   92.687630
H   74.907852    6.518936    5.900446
H   46.230034   92.074806   78.232101
H   31.808815   93.258911   48.017643
H   31.928581   42.807426   82.910095
H   84.920601   60.957279   57.369530
H   91.272423   89.579185   53.310818
H   10.965134   55.305305   85.582977
H   78.876884   16.242220    3.513683
H   13.974609   36.302319   42.759239
H   66.764114   49.683441   60.076614
H   29.427650   60.317497   11.667697
H   27.143623   87.269958   93.807175
H   78.724518   51.651779   67.690712
H   27.318296    1.958807   93.777138
H   98.355644   67.141800   83.660683
H   76.638763   53.321686    6.194788
H    2.886836   31.781590   57.784889
H   62.729996   86.443962   18.707432
H   82.060616    0.292319   75.664207
H   32.084179   35.972519    8.782631
H   67.468727   59.873253   77.787704
H   56.322235   87.168274   94.054253
H   75.922897   40.071739   81.574905
H   39.300861   15.801100    6.167550
H   84.359909   50.063950   40.827137
H   89.654732   81.760536   20.094509
H   67.031433   89.515373   35.556358
H   65.904045   17.307995   69.898743
H   46.981003    0.915515   41.719952
H   52.531326    1.163008    0.967098
H   47.572941   88.794037    6.144913
H   10.011446   83.459869   93.148560
H   90.775414   65.468384   17.056360
H   23.669689   43.368702    0.294438
H   74.687790   54.227257   65.956291
H   56.464680   38.813995   29.563835
H   88.327133   83.114838   76.217499
H   14.341655   94.934547   88.652199
H   43.222813   62.422859   97.890732
H   10.119799   72.341095   97.157104
H   96.366463   46.466125   57.895626
H   79.012474   38.385368   17.945026
H    4.950927   28.243593   36.222889
H   98.843887    8.096884   49.036133
H   63.653133   67.838066   57.154366
H   11.974706   78.549461    4.908506
H   22.941618   16.989491   87.665108
H   80.673981   51.998409   43.640633
H   25.775564   82.415184   85.527382
H   49.209557   88.681534    4.501823
H   60.421604   19.454308   44.229546
H   32.681618   64.740417   12.619755
H   99.741081   23.958969   88.372765
H   42.226631   32.583443   95.584885
H   49.150711   94.190369   70.707199
H   88.999535   58.769302   67.847389
H   67.128372   46.707748   95.686218
H   15.843424   60.297287   92.851227
H   88.091331    8.406857   11.549484
H   26.174053   11.537921   65.445244
H   31.970564    9.667858   53.600899
H   37.356014   82.456535   52.534569
H   65.536263   34.652508   21.151152
H   25.373224   77.907677   12.112076
H   49.922447   60.959248   65.646431
H   30.149639   74.916695   47.385071
H   63.779221   41.129131   64.747612
H   92.666412   79.233177   57.536736
H   93.413986   72.918808   32.088299
H   57.807571   71.774307   34.071411
H   84.669685   77.664246   31.643688
H   40.341675   73.102364   78.167435
H   46.948074   85.046364   38.864548
H   54.216908   63.991158   34.694046
H   48.865410   96.669952   24.674162
H   23.850977   67.590981   51.877495
H   43.219833   59.320580   93.693001
H   93.410446   35.736046   74.999298
H   96.640503    1.192220   22.538248
H   90.385712   12.716377   13.898829
H   55.835457   54.079102   45.188946
H   54.914242   69.086899   11.217112
H   83.663338   71.907524   13.012397
H   42.311111   29.166542   49.583824
H   27.797108    9.742927   94.607620
H   22.348867   52.151428   88.540749
H    7.777371   55.032436   91.734734
H    1.208255   70.390450   91.406631
