100
TIME:    9.631, STEP:  9631
H   66.016754   38.812843   90.328568
H   34.490707   26.753643   85.370537
H   45.318905   66.796638   10.286551
H   83.093140   35.854179   12.254121
H    8.897223   44.724106    4.570606
H   78.670776   90.774117   32.535744
H   48.208637   11.668651   43.609921
H   62.908691   21.806118   23.907028
H   16.879509   60.310577   93.850014
H   11.700724   54.671894   84.813332
H    4.402825   53.765213   12.040594
H   88.252251    6.442835    7.384299
H   29.612854   79.036598   68.004639
H   78.212189   75.390450   90.163048
H   97.584114    9.744423   87.745628
H   14.281109   69.366440   33.584045
H   49.639320   18.987114   50.136276
H    7.020316   26.194283   65.666580
H   95.274643   82.385727   70.760864
H   33.039547    1.288790   72.055870
H   92.759033   97.421028   95.841202
H   85.713699   56.869278   99.109695
H   57.154472   16.301291   56.796539
H   24.198757   52.042938   91.792297
H   85.125107   22.373802    7.663326
H    2.193972   42.181625   84.562096
H   31.586727   42.127956   91.058701
H   19.906122    5.982229   85.122124
H   20.588146   22.891592    1.910198
H   70.288429   52.472305   49.025215
H   95.095329   85.686096   47.405029
H   73.864578   86.417435    7.674129
H   48.752785   63.832565   65.433495
H   85.034424   91.099083   66.012688
H   41.266869   30.468117   11.010051
H    9.843931   39.775028   89.148659
H    3.537609   51.827400   67.350479
H   65.922798   82.703026    2.075053
H   38.544796   71.574120   10.997135
H   56.060215   10.560384   95.781448
H   77.041016   86.645615   69.246666
H   88.565407   79.371994   71.637199
H   94.171539   21.262871   97.130516
H   64.379677   74.305275   22.401661
H   21.234625   51.909977   80.262619
H   53.810341   46.607403   22.288347
H   16.988789   48.607639   17.919329
H   56.775448   94.566177   64.488876
H   46.552376   34.810711   60.291496
H   27.937826   77.330101   10.132935
H   44.908726   39.988579   51.777435
H   73.195557   70.054535   41.821022
H    8.638840   77.852539   43.519371
H   53.656517   50.067825   56.805428
H   73.960213    2.619108   82.253677
H    5.591158    2.402846   64.764816
H    6.816405   11.648081   71.975670
H    8.912074   67.357964   65.482689
H   49.856533   45.715233   72.114174
H   23.472546   68.059860   89.682045
H   67.235321   30.685534   63.493702
H   57.094902   38.298080   59.584831
H   27.912769   50.086914   73.046555
H    4.382930   94.227127   65.661102
H   14.593081   91.630623   92.461388
H    9.702276   63.488060   15.644727
H   14.855247   81.329987   32.047619
H   15.086888   68.344551   26.620102
H   36.910095   57.764099   56.194454
H   25.625580   32.384434   81.416428
H   16.196751   40.104244   46.626015
H   80.177330   31.813866   61.992916
H   79.033005   41.921154   14.809269
H   18.195179   39.874104   30.911699
H   26.405252   42.496380   31.530386
H   53.342789   24.829136   47.884689
H   41.483345   92.212326   61.553322
H   84.453926   20.981392   46.334923
H   23.355345   25.229435   25.139650
H   27.211792   84.372719   91.202065
H   99.358482   28.919474   55.615181
H   63.997093    6.935903   81.273979
H   27.055063   68.182655   47.151318
H   12.746945   36.305130   83.774284
H   83.382080   46.442497   14.136729
H   29.633366   62.819008   10.589150
H   10.387636    3.099734   82.786369
H   10.921108   34.395119   95.722733
H   55.555668   57.933449   49.421638
H   14.828822   13.029747   68.499527
H   18.163534   93.476654   36.851219
H   90.895370   19.822699   17.036341
H    2.819273   16.492079   63.784599
H   75.993690   97.316940   79.379448
H   90.075623   87.043159   37.394814
H   89.402679   15.414783   69.995193
H   98.139214   20.381599   83.300232
H   19.687250   63.000599   85.533226
H   49.914330   78.391182   38.340656
H   37.429611   31.488430   69.955887
