100
TIME:    7.714, STEP:  7714
H   95.656242   14.610475   92.083633
H   87.435196   22.873867   64.499100
H   12.367540   28.879543   32.789143
H   82.771378   14.833523   17.331684
H   26.074930   91.068459   56.546753
H    8.393022   92.850945   42.689468
H   48.678669   82.224060   93.697998
H   13.581108   55.960079   99.919212
H   64.003029   44.623795   14.517681
H   64.063026   27.146608    9.752846
H   82.717545   76.632187   96.698242
H   61.421524   10.353468   43.837746
H   51.853584   95.068130   58.509968
H   73.130150   81.299171   44.279446
H   74.300240   80.980331   79.935089
H   91.359436   37.034424   92.711212
H    3.792993   92.192444   75.624207
H   66.027603   19.475555   32.120827
H   65.409271    1.963315   69.764008
H   84.688217   41.997204   41.537575
H    6.517014   88.264038   47.871044
H    1.929031   54.324432   62.359924
H   82.749184   31.884813   11.643130
H    2.315717   29.110079   34.164825
H   53.687080   74.401932   93.509560
H   11.235195   98.694748   64.961739
H   96.891800   21.814558   53.028057
H   81.656548   16.503134   21.755674
H   78.904198   48.966236   92.527794
H   96.782852   99.917587   96.629906
H   19.649347   13.785292   99.071953
H   52.823910   39.381130   85.140465
H   13.720354    4.089837   92.734993
H    4.036147   66.780647   46.772217
H   88.975410   75.611992   94.377182
H   43.202259   89.622101   95.174385
H   19.672310   22.032286   16.298185
H   45.157936   17.780941   66.795723
H   19.460880   13.342371   96.768791
H   36.621002   90.024353   44.956284
H    8.054667   20.869482   24.082975
H   50.120079   71.853607   73.772484
H   77.673920    9.761860   58.662708
H   86.778793   42.121605   34.969578
H   87.523323   27.537617   16.217831
H   78.550743   10.047919   14.500242
H    2.001506   44.352119   99.510124
H   56.658443   74.821686   45.876141
H   90.519173   93.577156   36.759270
H   87.697021   48.145451   44.169716
H   42.971912   24.906839   34.743256
H   80.028763   47.937168   67.660736
H   68.884285   66.737122   54.853737
H   98.056274   81.343765   72.214005
H   26.595062   34.622810   65.960815
H    3.203537    4.419344   30.024033
H   85.285980   66.962196   89.652962
H   51.655197   48.395454   14.859714
H   98.660561   64.713402   19.282181
H   49.973541   20.711506   44.206078
H   46.305950   19.835243   12.952508
H   25.133003   56.141251   46.320839
H   97.763588   80.893341    4.498322
H   72.747246   83.784485   17.702930
H   38.504639   44.740223   13.940135
H   27.464333   58.787529    2.295797
H   68.659790   15.055979   39.494732
H   47.507072   58.709404   34.976410
H   41.367386   95.507500   76.424744
H   86.692085   36.098370   85.482330
H   77.077873   70.541595   69.617378
H   38.038319   95.464256   21.479635
H    4.023361   36.746464   63.965740
H   60.389889   61.199192   44.813477
H   34.061615   39.673649   86.182434
H    8.018857    1.967329   76.874397
H   67.378624   58.135170   27.549875
H   94.398071   46.322353   40.455463
H   31.427519   30.860271    3.744566
H   21.223297   88.800957   56.353188
H   61.829323    9.087228   41.038147
H   20.149223   94.497055   41.650883
H    5.802046   36.123447   64.586472
H   80.859779   72.262817   58.861599
H   76.722336   66.362511   99.967339
H   73.755417   92.401886   77.466721
H   82.355400   42.481834   91.376564
H   80.091362   87.792175   15.595764
H   15.771192   64.669029   65.100227
H   84.317688   91.900162   99.975098
H   39.711384   89.965523   96.367355
H   49.056782   75.646011   80.508232
H   79.935822   58.979000   15.540042
H   92.794502   81.172325   46.941921
H   23.221825   58.757408   93.346649
H   31.066391   91.115051   69.010750
H   50.301109   10.370292   93.549217
H   23.387514   68.146660   24.023104
H   41.235771   70.113121   98.908089
H   18.358095   80.679184   54.626881
