100
TIME:    4.321, STEP:  4321
H   25.110405   25.763519   95.190018
H   81.140236   39.012794   50.559349
H   54.028763   84.774361   72.622917
H   82.201874   54.625359    3.313555
H   56.468246   19.104708   48.544067
H   61.019413   96.526833    6.668829
H   26.507141   53.113209   28.360834
H   80.264214   62.422260   11.453468
H   47.409508   70.846832   28.095030
H   56.758675   78.426521   76.896393
H   98.326141   40.107212   23.529232
H   90.919258   40.279915   85.355858
H   68.335190    0.290080   95.665771
H   41.130013   91.757332   86.069946
H   33.061485   84.058441   43.066143
H   27.786877   33.798698   74.360291
H   76.637978   67.770050   66.746025
H   93.472740   84.570320   49.739231
H   12.569401   59.626572   91.009903
H   76.101341   14.054869   10.526346
H    7.862442   26.048054   39.964050
H   76.638824   49.820175   51.305206
H   28.052452   59.479805    8.720647
H   17.573814   88.505280   86.157928
H   75.040558   43.483101   68.451393
H   26.848764   98.914047   84.091026
H   89.474220   62.860401   85.703835
H   67.947510   58.129379    9.599584
H    5.126616   41.126644   52.915901
H   66.679565   83.894737   26.895363
H   86.113914    9.528352   67.515175
H   38.587688   33.127037   99.247459
H   74.723488   52.337166   87.066757
H   60.674149   77.728912   89.714912
H   73.362671   32.285759   87.847382
H   48.254581   23.868412    5.843494
H   94.239334   46.291977   48.943165
H   85.397118   79.876122   27.362629
H   62.683994   87.271049   25.575029
H   56.202850    7.665326   78.002197
H   39.941559    4.449445   44.146587
H   43.274277    5.785934    5.805960
H   48.460140   89.411697   13.584564
H    3.434398   85.185547    3.219605
H   81.840553   61.404587   25.870596
H   22.340855   45.333271    0.713150
H   75.492477   59.828636   66.944862
H   56.470181   39.874863   35.936897
H   91.338425   74.583893   72.109192
H   16.501896   96.501488   81.447731
H   43.214954   52.478996   98.976746
H   15.125128   62.783756   90.395844
H   98.502342   47.063354   51.913120
H   76.626701   36.704483   22.489861
H   96.750092   37.270397   37.099087
H   98.972763    7.988450   45.529770
H   70.183319   64.866066   66.950493
H    4.305224   68.822487    2.255323
H   31.064718   21.341797   79.758110
H   73.876572   59.915623   40.711067
H   32.273163   77.624779   77.496223
H   45.553886   87.722824   99.841232
H   67.414299   12.425572   37.166527
H   39.754852   65.301498    9.822994
H    3.829403   15.732533   97.964577
H   35.899147   27.462990    1.674995
H   40.886948   97.751740   75.679916
H   81.884651   64.659866   72.771385
H   72.261398   39.306824   89.226715
H   17.930189   65.478027   92.634338
H   84.820717    1.398647   10.313770
H   17.681221    8.119374   72.986046
H   25.254488    4.573338   50.959732
H   35.088116   75.938881   46.414543
H   70.502693   34.799458   28.959528
H   27.808504   84.508629    5.181625
H   59.274582   52.031460   67.467979
H   34.988766   68.182152   53.073677
H   68.718895   40.826588   65.896492
H   87.615112   73.623940   48.663170
H   95.428848   73.984390   38.244473
H   65.536034   72.446976   25.458441
H   91.185768   79.383636   41.453960
H   47.427483   81.916206   68.759506
H   41.932922   78.604149   28.879822
H   51.846066   67.774132   41.846649
H   55.744545   89.181015   29.585585
H   25.508680   59.344505   50.806412
H   45.357285   53.585609   92.850594
H   84.304276   31.498077   78.681686
H    0.855697    6.753841   24.713419
H   98.006668   20.462196   15.861433
H   62.437981   57.169762   53.154095
H   64.869827   75.334229   18.161863
H   81.882652   62.681793   15.379113
H   50.818481   25.099491   44.263771
H   19.621750   15.653726   88.684052
H   22.726851   53.028412   86.892082
H    2.870762   55.476429   83.107918
H    7.605776   67.746925   81.484772
