100
TIME:    8.813, STEP:  8813
H   21.334824   13.827425   91.077469
H   57.082565   82.427826   33.792538
H   31.258280    7.946745   19.889019
H   82.955841   69.554741   57.093346
H   16.227095   79.158066   26.748253
H   91.352173   91.660316   51.527328
H   91.080940   56.435036   79.641243
H   27.201874   51.037716   99.012688
H   36.987511   38.958725   45.340633
H   34.045784   42.926624   52.785316
H   80.491241   20.852055   90.836708
H   19.472847   65.440758   65.610069
H   81.773834   28.548355   49.295258
H   18.714441   77.911751   27.913242
H   87.648689   82.812233   27.083771
H   47.172043   40.911827    1.484483
H   15.418115   64.880806   75.670509
H   89.523422   65.998390   94.024979
H   82.530838   48.070667   27.664883
H   55.075970   18.660173   16.362574
H   41.300804   78.855560   18.044687
H    7.291237   55.783371   68.769928
H   68.075951   22.950911   80.199707
H    0.202727   42.257294   52.544750
H   14.381379   87.245148    1.625167
H    6.052557   66.296249   61.540432
H    2.123702   76.132095   74.832504
H   88.926422   67.800751   58.085419
H    2.800783   48.676113   40.576164
H   38.921944   72.717606   83.997070
H   62.904842   12.334848   12.122566
H   22.215351    9.019632   83.400536
H   91.132462   23.681122   91.741592
H   50.472626   66.063843    0.474594
H   61.624504   92.402260   61.244083
H   38.736179   75.704178   91.719887
H   25.080704   81.783455    2.895351
H   99.735695   97.668571   44.349556
H   73.073753   89.397972   90.267517
H   33.107635   87.139793   31.422728
H   32.944824   58.575500   49.974941
H   57.502274   76.163345   29.880573
H   87.131866   16.354446   38.044941
H   16.604961   60.573860   42.422405
H   92.193466   84.183327   10.263343
H   64.363823   31.005489   18.965097
H   10.593242    4.118612   10.064047
H   56.725521   86.141037   13.875694
H   22.643700    2.558409   92.919342
H   10.768787   64.873375   67.328880
H   42.896450   18.805286   46.330917
H   33.441372   45.958218   95.517250
H   91.673912   73.109497   91.027267
H   72.600311   63.416992   20.709358
H   39.091103   30.933771   75.301376
H    4.572340    3.263303   92.611465
H   54.956718   35.251244   94.176994
H   69.821716   44.608360   86.551781
H   85.340157   11.149076   34.911430
H   77.451164    5.183786   12.947899
H   15.631170   68.724365   27.265385
H   86.127312   45.911911   96.593788
H   72.376175    5.899367   29.136597
H   48.213276   89.771164   87.866028
H   82.126770   56.965145   16.284990
H   59.952370    4.153249   67.277702
H   80.484787   53.048893   92.553146
H   71.591522   21.562485   87.514969
H   96.139740   16.540352    7.495857
H    9.012450   91.299026   83.151382
H   42.175488   95.762779   56.436623
H   47.537735   58.974022    2.035859
H   32.367615   82.383385   35.784748
H   36.200016   91.645241   79.515327
H   87.002640   41.291897   69.509247
H   34.002411   72.404533    2.926887
H   67.191238   63.013950   47.043358
H   46.025723   74.465431    1.157333
H   84.128593   27.632160   16.009295
H   67.327568   28.933950   61.673393
H   83.344475   20.456888    6.724107
H    2.617161    1.625724   49.707932
H   75.316719   54.502720   69.249397
H   56.468552   66.306740   58.485043
H   23.211151   97.615280   93.432236
H   48.461994   32.769341   53.784714
H   55.755192   62.575264   43.781090
H   97.766319   99.849098    4.200761
H   38.580570    3.478986   56.111824
H   87.151260   46.686623   39.260208
H   84.686943   49.306034   19.576561
H   30.371653   58.301132    1.452687
H   50.383747   91.948936    0.527404
H   99.008072   47.847401   21.045172
H    4.218101   60.315739   18.599615
H   21.839294   47.715820   12.246161
H   63.067802   73.438789   30.345203
H   21.266184   22.527992    1.958754
H   88.882164   74.858864    6.855595
H   86.620758   52.476467   48.756359
