100
TIME:    8.759, STEP:  8759
H   24.986473   18.779352   91.126907
H   58.573959   79.501892   30.387562
H   30.330072    4.061911   20.522861
H   82.946777   71.779472   60.053474
H   16.710974   74.829727   28.212250
H   92.189331   91.718819   46.179321
H   93.911293   52.788536   75.418373
H   31.446167   46.366192    3.970794
H   38.314934   44.150589   48.739941
H   35.520699   42.151264   50.670998
H   85.514191   18.679440   96.038460
H   21.534019   62.734005   69.453911
H   85.217224   31.816650   54.661392
H   21.388033   78.078194   23.803669
H   86.992805   87.635780   29.680527
H   49.343216   45.634850    5.967058
H   19.760475   61.309185   70.754677
H   88.368210   68.626045   95.897049
H   81.689560   45.805149   24.820110
H   56.530697   19.806940   12.685999
H   44.505241   84.231171   19.510332
H    2.114205   55.711685   73.368530
H   68.796928   23.389883   81.744659
H    5.220133   41.611298   56.555447
H   16.312656   91.527344    1.226557
H    6.307268   67.888168   66.622086
H    6.780199   78.376602   73.761337
H   93.483002   65.280212   56.300278
H    1.626542   43.776760   43.128838
H   36.851295   74.054092   79.704163
H   60.779400    7.492653   16.394875
H   18.805744   10.511541   88.399590
H   87.328995   27.631874   86.876846
H   48.191040   71.012634    2.749416
H   62.968407   96.490822   57.958485
H   34.041996   71.474716   91.889626
H   19.901405   83.760994   98.640404
H    1.967578   98.656517   40.539085
H   75.352867   90.574608   95.500580
H   38.193619   92.194878   27.174109
H   36.635406   56.722794   48.702724
H   62.053085   75.951584   27.123760
H   86.667145   16.030418   34.144657
H   20.052883   59.667076   37.142788
H   96.877762   86.313301    5.642210
H   65.060905   29.975727   18.745714
H   10.171058    1.181736    9.545458
H   56.722225   85.584854   10.534580
H   21.065376    7.030575   95.073212
H    9.635307   64.051048   71.104332
H   42.900158   24.018780   45.761551
H   30.816919   50.969219   99.061989
H   90.554131   72.796387   94.163315
H   73.851105   64.298096   18.326630
H   43.390602   26.201479   74.842422
H    4.505083    3.320106   94.449753
H   51.533516   36.809380   89.041161
H   73.842712   49.707939   87.942650
H   81.081032    8.867284   39.057259
H   81.014854    1.033050   14.483788
H   12.224756   71.235840   31.475483
H   88.043877   46.414536   99.036873
H   68.710312    9.584285   32.839539
H   44.504978   89.477005   89.331879
H   79.983612   61.278240   11.256165
H   63.269691    6.837655   64.084801
H   84.817245   51.182178   89.946091
H   75.321655   18.474022   84.933456
H   93.448639   20.420448   10.882702
H    7.915736   88.586502   83.265915
H   43.890591   99.436882   57.084267
H   51.984314   60.766991   98.077621
H   35.888458   85.054710   37.169437
H   37.388599   95.063087   82.723885
H   84.401352   41.212383   65.414917
H   32.725662   68.943840    6.560350
H   62.286942   67.687622   46.085487
H   43.489117   77.996162   98.174683
H   81.538841   27.790775   15.406658
H   69.975822   31.875746   66.325554
H   82.287315   19.898233    3.496499
H   98.565018    1.275174   54.225372
H   71.901344   53.599644   64.106972
H   52.753662   61.685890   63.416943
H   25.840454    0.993481   98.666946
H   49.704960   30.785748   50.034805
H   52.148655   66.501503   41.206169
H   96.897850    4.170143    4.760652
H   37.459965    6.485561   56.553474
H   91.925369   48.908470   37.330048
H   82.477043   46.390400   18.436180
H   26.376200   54.239761    0.423925
H   46.922230   90.329002   96.351501
H   93.789017   44.571278   17.404234
H    5.151818   65.152786   17.358915
H   17.379120   49.848267   15.035418
H   67.354118   70.339821   33.450874
H   21.370417   19.856049    3.042898
H   91.454613   74.625679   11.378803
H   83.266357   53.861980   53.958523
