100
TIME:    7.614, STEP:  7614
H    2.418854   23.780655   92.175186
H   90.197037   17.454708   58.193462
H   10.648638   21.685406   33.963306
H   82.754593   18.953777   22.813023
H   26.971003   83.053017   59.258240
H    9.943887   92.959282   32.785751
H   53.919300   75.472046   85.877869
H   21.440910   47.309109    9.100997
H   66.461220   54.238358   20.812313
H   66.794350   25.710756    5.837112
H   92.019302   72.608444    6.330847
H   65.238266    5.341146   50.955971
H   58.230232    1.121181   68.447594
H   78.081627   81.607399   36.669125
H   73.085640   89.912827   84.744659
H   95.380127   45.780762    1.012026
H   11.834564   85.577759   66.520813
H   63.889805   24.341583   35.586861
H   63.851421   97.768356   64.495148
H   87.382919   44.120464   34.729103
H   12.451157   98.218872   50.584820
H   92.341934   54.191681   70.875854
H   84.084328   32.698051   14.504344
H   11.607183   27.913790   41.592041
H   57.263741   82.331924   92.771034
H   11.706692    1.642520   74.371834
H    5.514803   25.971434   51.043652
H   90.094658   11.835471   18.450239
H   76.729820   39.893360   97.254967
H   92.948318    2.392742   88.680077
H   15.713710    4.818240    6.983571
H   46.509823   42.143734   94.397972
H    6.676325   11.406096   83.726204
H   99.810799   75.945076   50.985168
H   91.464119   83.183403   88.293503
H   34.509327   81.789764   95.488716
H   10.081017   25.694777    8.418731
H   49.290779   19.611233   59.738991
H   23.682224   15.520945    6.459442
H   46.039490   99.385620   37.088089
H   14.888697   17.438543   21.727018
H   58.547508   71.461456   68.666893
H   76.813324    9.161999   51.439960
H   93.164597   40.443138   25.192242
H   96.197945   31.482777    7.660320
H   79.841637    8.140952   14.093977
H    1.219779   38.913887   98.550346
H   56.652340   73.791718   39.688702
H   87.595589    1.859465   40.748680
H   85.597412   46.623386   51.162056
H   42.978779   34.561356   33.688873
H   75.168839   57.216801   74.225067
H   66.810616   66.157288   60.661232
H    0.372429   82.974930   67.801163
H   34.557358   25.859192   65.110901
H    3.078987    4.524534   33.428268
H   78.945953   69.847633   80.142159
H   59.101486   57.839119   17.435694
H   90.773293   60.487606   26.959259
H   56.572205   13.024892   47.050316
H   39.997967   24.485741   20.749062
H   28.682198   57.072037   50.845833
H   90.974953   87.717072   11.355621
H   65.880791   83.239746   20.418232
H   34.535065   52.727436    4.627315
H   33.607239   63.758842   96.382950
H   76.682861   11.598909   34.666851
H   54.414726   52.990410   30.195831
H   36.383102    2.692849   82.696106
H   84.661140   31.075937   85.694427
H   80.253227   77.345490   70.816719
H   46.272724   98.784569   14.149743
H   10.543802   41.692600   66.529358
H   62.590969   67.528198   50.755249
H   29.244635   39.526402   78.600342
H    5.654603   95.558495   83.603523
H   58.296589   66.790474   25.776423
H   89.699890   52.860744   34.932545
H   26.632444   31.154003    2.628576
H   26.127090   94.248344   64.968300
H   59.871620    8.052682   35.061279
H   12.645417   93.848557   50.016514
H   99.476677   34.451084   55.062744
H   73.979591   63.705685   67.995079
H   81.591415   72.618614    9.661056
H   76.056442   88.729095   70.522446
H   75.676628   49.752647   86.608192
H   78.483086   95.793884   16.632599
H   13.695615   70.236961   65.918098
H   93.158630   96.013931   96.399963
H   35.618977   84.565437   94.255539
H   41.657795   68.124954   78.602409
H   73.525604   55.978359    7.806888
H   83.129585   75.105431   40.199062
H   24.951027   67.714767   91.048676
H   22.806808   95.064026   74.175850
H   58.238731    4.631652   99.300255
H   23.580538   63.198360   26.030779
H   45.999565   69.681297    7.284283
H   12.146887   83.245712   64.260498
