100
TIME:    6.922, STEP:  6922
H   49.215408   87.240395   92.808731
H    9.307892   79.957375   14.559112
H   98.752838   71.900459   42.088520
H   82.638443   47.464508   60.745884
H   33.171326   27.586164   78.021729
H   20.676449   93.708977   64.255997
H   90.188278   28.744122   31.762568
H   75.830742   87.442993   72.639412
H   83.471901   20.771439   64.373085
H   85.695107   15.774630   78.742043
H   56.387451   44.764149   72.986778
H   91.646530   70.654755    0.214077
H    2.359543   43.001400   37.216728
H   12.345345   83.740334   84.007332
H   64.680611   51.725670   18.024181
H   23.205372    6.305552   58.454590
H   67.481026   39.806927    3.525320
H   49.091251   58.014496   59.571815
H   53.075878   68.741440   28.039845
H    6.028557   58.813427   87.614586
H   53.515427   67.111176   69.365654
H   25.999222   53.273041   29.806015
H   93.323524   38.326042   34.304855
H   75.904900   19.635469   92.985397
H   82.014229   37.211060   87.660439
H   14.969448   22.040024   39.491905
H   65.188179   54.739098   37.311565
H   48.483078   79.535271   95.576218
H   61.683128   77.110085   29.964735
H   66.413345   19.520622   33.667259
H   88.479591   42.764595   61.732399
H    2.816662   61.260952   58.459846
H   57.934406   62.035820   21.385382
H   70.572701   39.362656   80.138794
H    8.686359   35.577492   46.192207
H   74.355370   27.589783   97.663887
H   43.708725   51.037231   53.891819
H   77.892616   32.276852   10.908515
H   52.893925   30.596674   73.519180
H   11.218765   64.169830   82.643417
H   62.181870   93.694862    5.424652
H   16.865662   68.747772   33.340786
H   70.858002    5.010960    1.458160
H   37.350277   28.828146   57.531380
H   56.222786   58.783283   48.444645
H   88.774620   94.943405   11.282621
H   95.812790    1.279262   91.908684
H   56.610104   66.664337   96.872086
H   67.364388   59.168941   68.354568
H   71.068115   36.090702   99.545174
H   43.026295    1.368715   26.394577
H   41.536587   21.428764   19.650246
H   52.456577   62.144836    0.849159
H   16.395836   94.262589   37.264297
H   89.654648   65.216911   59.225208
H    2.217102    5.252451   56.985580
H   35.076450   89.814857   14.327366
H   10.629529   23.190142   35.261581
H   36.200249   31.244228   80.082253
H    2.239180   59.837170   66.732445
H   96.345268   56.665161   74.701736
H   53.242622   63.513077   82.155731
H   43.995350   34.938637   58.808136
H   18.360611   79.470154   39.208118
H    7.067985    7.995231   40.185047
H   76.118103   98.160332   55.466507
H   32.203964   87.673737    1.255595
H    2.215752   13.413733   97.114227
H    1.892303   52.415558   26.096645
H   70.621300   96.297783   87.157379
H    2.226862   24.428879   79.116158
H    3.239626   21.784794   63.429695
H   55.664017   75.918030   84.268616
H   77.827232   11.326477   91.872314
H   95.909050   38.510296   26.132946
H   89.297066   51.208828   30.167002
H   95.447845   26.683865   13.504129
H   57.188473   98.107216   96.714851
H   93.448967   33.186626   94.908501
H   60.063522   31.946079   24.584587
H   46.325874    0.893134   93.701233
H   60.717049   89.360947    7.910245
H   55.708282   22.878332   89.159409
H   26.372547    4.489386   31.199390
H   15.285444   15.909360   76.742149
H   91.979538   63.313240   22.468063
H   29.459520    0.066675   53.611061
H   67.353813   51.169064   23.807495
H   99.333115    8.766718   71.577766
H   54.341587   24.485760   71.660034
H    7.299502   47.199219   79.641769
H   90.456802   16.080048   65.414116
H   29.166904   35.213924   54.293465
H   16.251507   33.122520   93.538879
H   36.916023   29.699028   75.146698
H   65.650406   22.389387    9.918705
H   13.166754   64.919098   39.099030
H   24.916262   28.960304   39.922386
H   78.965019   66.693077   65.248253
H   69.162010    1.005901   30.922176
