100
TIME:    7.346, STEP:  7346
H   20.542227   48.357338   92.420547
H   97.598770    2.931733   41.294201
H    6.041870    2.405105   37.110065
H   82.709610   29.996059   37.503391
H   29.372477   61.571636   66.525024
H   14.100205   93.249626    6.244781
H   67.964767   57.375896   64.919922
H   42.505180   24.124508   33.708549
H   73.049171   80.005386   37.682270
H   74.114296   21.862673   95.343361
H   16.947998   61.824818   32.145920
H   75.465744   91.907806   70.032814
H   75.319649   17.342075   95.081566
H   91.351585   82.433449   16.273464
H   69.830513   13.851891   97.634308
H    6.156069   69.220947   23.258875
H   33.385567   67.850403   42.123714
H   58.158573   37.382538   44.875832
H   59.678234   86.526718   50.376575
H   94.604721   49.810802   16.482401
H   28.354660   24.899681   57.857738
H   66.648514   53.835907   93.698547
H   87.662514   34.877678   22.172808
H   36.508476   24.707735   61.496979
H   66.849190    3.584656   90.791786
H   12.970303    9.542130   99.590889
H   28.624773   37.112328   45.725445
H   12.707927   99.326164    9.591304
H   70.902489   15.578735    9.923140
H   82.671768    9.026188   67.374535
H    5.165729   80.785370   28.186867
H   29.588070   49.547512   19.208015
H   87.799324   31.013533   59.582649
H   88.487373    0.505738   62.275879
H   98.133858    3.474762   71.989243
H   11.213076   60.799103   96.331123
H   84.375809   35.509888   87.301483
H   60.366798   24.516415   40.827766
H   34.995426   21.359522   32.429947
H   71.281624   24.475142   16.002104
H   33.203964    8.243627   15.413101
H   81.133018   70.410492   54.985256
H   74.506927    7.554371   32.082996
H   10.277534   35.944847   98.988884
H   19.445072   42.055805   84.726875
H   83.301231    3.030056   13.005186
H   99.125290   24.338886   95.978142
H   56.635983   71.031403   23.106365
H   79.760384   24.054501   51.440300
H   79.970459   42.544254   69.900887
H   42.997181   60.434708   30.863541
H   62.144238   82.084732   91.817474
H   61.252171   64.603333   76.225319
H    6.578026   87.346451   55.974747
H   55.895615    2.372705   62.832081
H    2.745193    4.806444   42.551620
H   61.954929   77.580605   54.653206
H   79.057541   83.148140   24.339548
H   69.638481   49.162136   47.533058
H   74.257805   92.425598   54.672874
H   23.092031   36.948669   41.643623
H   38.194038   59.566544   62.972816
H   72.781410    6.004846   29.733185
H   47.476856   81.779846   27.695240
H   23.897385   74.132202   79.669792
H   50.070984   77.081963   80.536697
H   98.184692    2.333807   21.727320
H   72.927238   37.663506   17.383881
H   23.025223   21.949615   99.503357
H   79.218208   17.615824   86.262848
H   88.763176   95.579926   74.030952
H   68.341331    7.683434   94.505501
H   28.018641   54.948246   73.399475
H   68.491417   84.490845   66.679199
H   16.335562   39.131779   58.280338
H   99.318672   78.383202    1.637457
H   33.956745   89.985298   21.023569
H   77.108765   70.384438   20.131121
H   13.781556   31.941204   99.637871
H   39.269821    8.847789   88.056801
H   54.624977    5.280099   19.043274
H   92.534828   92.110580   72.437172
H   82.526299   29.969152   29.539032
H   55.541622   40.772579   92.473961
H   94.640549   89.384972   35.639977
H   82.223190   78.886017   51.911789
H   57.777515   69.238426   73.828957
H   74.172905   17.239286   19.411316
H    8.133069   85.159019   68.109993
H   16.853411    7.040142   86.818604
H   24.651325   70.093208   88.595871
H   21.828508   47.968521   73.494804
H   56.346226   47.936642   87.082039
H   57.228142   58.846153   22.128260
H   29.585289   91.719284   84.890106
H    0.671042    5.646909   88.018318
H   79.511559   89.251740   14.713525
H   24.097841   49.938625   31.411348
H   58.766533   68.524010   29.732800
H   95.500267   90.124008   90.076599
