100
TIME:    6.769, STEP:  6769
H   59.562332    1.271268   92.948807
H   13.532925   71.667229    4.911936
H   96.121750   60.892845   43.884991
H   82.612762   53.767914   69.132202
H   34.541733   15.322538   82.170303
H   23.049564   93.874733   49.103329
H   98.207611   18.412373   19.797770
H   87.856239   74.205841   86.686668
H   87.232933   35.481720   74.003288
H   89.874031   13.577484   72.751472
H   70.619141   38.607822   87.725075
H   97.485352   62.985615   11.104462
H   12.122818   52.254566   52.419609
H   19.920662   84.211922   72.364708
H   62.822273   65.392387   25.381657
H   29.357613   19.687660   71.154785
H   79.784340   29.687626   89.597115
H   45.819317   65.459518   64.875038
H   50.693424   62.323334   19.979656
H   10.150284   62.062016   77.197624
H   62.594666   82.342072   73.518898
H   11.330963   53.069931   42.835388
H   95.366295   39.570381   38.682220
H   90.120247   17.805147    4.348157
H   87.486519   49.345116   86.530495
H   15.689402   26.550621   53.890068
H   78.380974   61.099701   34.275425
H   61.392220   72.393745   90.519485
H   58.356331   63.228588   37.197144
H   60.546513   23.307335   21.504524
H   82.458672   29.045223   73.837273
H   93.156158   65.488144   72.623833
H   47.156750   73.230202    7.601933
H   64.108208   53.384232   86.584610
H   12.494375   47.161751   36.883011
H   61.055187   15.605735   98.144814
H   29.034512   56.640259   41.835972
H   84.217033   35.077198    0.112077
H   59.352581   33.930229   88.346191
H   25.629635   78.492569   70.606247
H   72.638519   88.444359    1.820287
H   29.759628   68.147781   25.529915
H   69.541290    4.093172   90.406303
H   47.119389   26.260092   42.572464
H   69.494270   64.819534   35.352238
H   90.749687   92.025162   10.661036
H   94.617477   92.958694   90.440224
H   56.600918   65.088486   87.405304
H   62.891594   71.840675   74.457199
H   67.855713   33.761944   10.243020
H   43.036800   16.140226   24.781956
H   34.099735   35.626602   29.693672
H   49.282696   61.257690    9.735231
H   19.938583   96.758270   30.512779
H    1.836633   51.808273   57.923672
H    2.026541    5.413392   62.194061
H   25.377375   94.229576   99.775566
H   22.021906   37.639305   39.202377
H   24.133896   24.778568   91.827599
H   12.335426   48.076649   71.084129
H   86.694054   63.779839   86.631516
H   58.672890   64.937180   89.077805
H   33.607571   45.378944   69.299805
H    7.854349   78.636703   43.362530
H    0.994975   20.215084   25.936766
H   85.517181    5.766224   46.419952
H   44.479263   82.383545   93.868851
H   12.784754    4.663145   89.799942
H   94.267281   63.409164   35.692997
H   67.520958   88.602959   87.479553
H    7.085565   34.838837   80.951149
H   15.832404   26.875229   52.217041
H   65.639740   83.484451   88.190735
H   81.196053   21.009792    0.963176
H   88.531731   38.292011   14.534096
H   85.680779   41.402363   40.461502
H   81.552338   39.926853   10.790747
H   50.000256    8.111517   88.265953
H   86.111336   33.636036   93.201912
H   67.566910   40.280586   37.765709
H   43.331757   99.310074   84.556625
H   49.236679   88.368744   20.710243
H   46.030220   20.319616   74.589203
H   15.846444   91.396873   45.173107
H   22.735136   25.480034   91.573830
H   95.500107   57.692703   11.843209
H   19.240999   11.191226   46.315453
H   64.893150   63.412846   25.393852
H   96.158066   17.285318   72.829109
H   67.869064   30.780994   66.190079
H    1.038002   38.938255   76.410690
H   79.136353    4.573168   62.498810
H   19.359272   30.622944   42.461739
H    1.464991   23.840174   83.222305
H   39.561119   43.404266   71.630798
H   53.013245   28.430735   17.821533
H   25.310801   56.138687   47.898117
H   25.211588   21.389797   42.993546
H   86.253624   66.032387   78.062843
H   59.658405    4.931969   45.661640
