100
TIME:    3.124, STEP:  3124
H    6.059226   35.534538   96.285904
H   14.370470   74.124100   75.060989
H   33.453499   98.657639   86.668526
H   82.000961    3.940599   68.927429
H   67.189667   23.159878   81.000565
H   79.577888   97.823631   88.126091
H   89.241570   72.285942   34.753807
H   74.346054   58.866680   21.358311
H   76.834053   85.933456    3.441631
H   89.470879   61.239372   30.022371
H    9.668152   91.943619   38.830029
H   36.606735   80.280746   70.559380
H   44.544380   72.700989   14.629059
H    0.399178   95.446815   94.977150
H   18.500229   90.979294    0.603556
H   75.914948   38.492706   73.722023
H   72.893623   88.599213   57.778393
H   67.902061   42.780617   91.239929
H   93.924614    9.407588   27.946871
H    8.354553   39.473522   29.029047
H   78.894135   45.213737   72.450317
H   61.881271   48.231140   53.240814
H   44.034126   69.214928   42.969711
H   28.788086   74.149170   75.058815
H   17.852089   38.410789   59.611244
H   32.334614   34.524868   96.359077
H   92.692703   12.615436   61.958851
H   68.946983    2.257464   70.036430
H   79.098953   32.525345    9.499521
H   20.781315   13.521216   31.737133
H   39.004223    2.191181   62.218010
H   63.008461   66.196007   10.059700
H   90.407684   39.915169   79.231544
H   10.097289   87.426857   40.141190
H    3.116297   22.769836   14.958824
H   44.174191   29.891104    9.901216
H   79.430885   90.127426   54.624264
H   34.870667    1.776258   42.892979
H   13.206517   13.350801   41.573135
H   68.946732   19.724592   83.824379
H   21.748358   63.373020   15.945788
H   50.853844   52.066360   49.569046
H   38.149677   82.233643   27.123745
H   79.870819   65.130829   86.181969
H   85.671547    8.635489   23.440226
H   37.783718   22.502308   95.853615
H   66.140915   94.730865   55.449532
H   56.406254   27.547792   61.873344
H   56.345123   73.719231   19.855921
H   91.400108   78.291512   65.166534
H   43.306278   68.041443   86.355789
H   56.953022   73.855957   68.978233
H   73.680519   40.122742   21.431862
H    4.351192   56.238655   69.670074
H   92.055374   32.363533   26.918756
H   97.475052    9.248709   86.278473
H   94.300423   99.404747   53.105873
H   93.437004   81.864197   33.089676
H   36.659760   70.765274   71.652946
H   52.866051   67.910034   74.756599
H   56.765144   33.291729   70.823318
H   88.037743   98.864334   54.004845
H   86.148918   94.106621   19.248428
H   57.559944   58.788284   42.325153
H   56.320812   11.334895   86.493370
H    9.432920   86.969612   30.899136
H   36.924568   56.365452   17.889063
H   64.569710   96.201477   15.547866
H   12.600922   25.315605   64.302254
H   93.678040    5.270105   95.154877
H   22.831486   82.842567   24.674446
H   16.379358   47.845703   85.346649
H    3.300416   63.778591   81.648430
H   61.443012   51.687309   17.539940
H   12.792731   33.091702   38.218784
H   99.508446    7.791339   85.723846
H   50.594372   55.779930   46.299107
H   78.751526   46.450336   86.966599
H   11.320918   44.342556   52.537109
H   46.318550   38.814129   51.785782
H   72.013412   61.600872   66.702927
H   75.722031   64.629654   25.550829
H   15.454193   59.401978   27.445347
H   65.075119   79.486298   78.087341
H    0.215815   53.477505   44.915611
H   79.393372   23.803333   58.723263
H   75.799614   76.212669   72.507660
H    6.243914   55.179352   63.253853
H   20.515087   20.232885    2.641383
H   90.134827   80.745926   35.893326
H   51.869568   42.118473   99.434891
H    9.436165   30.448313   93.050896
H   85.709137   21.252089   60.588158
H   49.174801    2.725830   37.453987
H    2.577093   69.901489   87.873650
H   51.951187   72.368050    6.090240
H   14.634118   46.960445   57.525566
H   18.334173   42.836670    6.049686
H   59.893272   50.316631   83.369072
H   33.254490   98.468269   96.794388
