100
TIME:    9.047, STEP:  9047
H    5.510713   92.368752   90.863235
H   50.619858   95.106873   48.547863
H   35.280514   24.781029   17.142368
H   82.995117   59.914238   44.266121
H   14.130285   97.914200   20.404266
H   87.724487   91.406807   74.701202
H   78.816078   72.235603   97.940346
H    8.809937   71.281631   77.528648
H   31.235344   16.460030   30.610388
H   27.653879   46.286518   61.947365
H   58.725128   30.266720   68.295784
H   10.541100   77.170036   48.953423
H   66.852478   14.385691   26.041779
H    7.128535   77.190498   45.721394
H   90.490852   61.910194   15.831161
H   37.763626   20.445396   82.060608
H   96.600990   80.359169   96.972450
H   94.529343   54.611885   85.912674
H   86.176376   57.887913   39.992229
H   48.772152   13.690851   32.294395
H   27.414909   55.560600   11.693502
H   29.725046   56.094009   48.842651
H   64.951714   21.048697   73.504913
H   78.461594   45.056610   35.165066
H    6.012441   68.688965    3.352523
H    4.948809   59.397934   39.519024
H   81.946388   66.405899   79.474228
H   69.181244   78.723083   65.820610
H    7.889076   69.906639   29.514782
H   47.894753   66.926163    2.599568
H   72.113518   33.317982   93.609253
H   36.990314    2.554882   61.737968
H    7.614767    6.561176   12.822164
H   60.359497   44.619080   90.616325
H   55.800926   74.685158   75.480240
H   59.077641   94.031845   90.984352
H   47.523712   73.214119   21.333395
H   90.063057   93.387474   60.861595
H   63.197445   84.299217   67.590912
H   11.067526   65.234428   49.834274
H   16.953142   66.604477   55.487881
H   37.782089   77.080978   41.826031
H   89.145660   17.758568   54.946171
H    1.664044   64.503029   65.300850
H   71.894852   74.953438   30.288046
H   61.344704   35.468487   19.915758
H   12.422706   16.844969   12.311266
H   56.739803   88.551163   28.354237
H   29.483101   83.177650   83.585907
H   15.680534   68.436790   50.967167
H   42.880383   96.213631   48.798172
H   44.813595   24.244198   80.156715
H   96.526299   74.466309   77.437729
H   67.180206   59.598282   31.034515
H   20.459385   51.441216   77.290176
H    4.863787    3.017158   84.645554
H   69.791290   28.499321   16.432577
H   52.397400   22.509802   80.524681
H    3.796204   21.036840   16.946924
H   62.008739   23.170429    6.292381
H   30.392733   57.842319    9.021515
H   77.822197   43.733871   86.007088
H   88.261581   89.931664   13.090515
H   64.282532   91.045853   81.514008
H   91.413788   38.275066   38.076740
H   45.577309   92.520531   81.113609
H   61.710800   61.137989    3.850651
H   55.427612   34.945625   98.701523
H    7.802191   99.726624   92.820160
H   13.764861    3.052946   82.655075
H   34.743374   79.841667   53.630165
H   28.269053   51.204491   19.187622
H   17.110626   70.807640   29.784428
H   31.049488   76.834572   65.611580
H   98.274887   41.636456   87.251343
H   39.534988   87.400871   87.180954
H   88.443192   42.759968   51.194130
H   57.017681   59.165596   14.081077
H   95.350853   26.944828   18.621157
H   55.851799   16.186171   41.514030
H   87.925499   22.877726   20.710274
H   20.175995    3.144773   30.132269
H   90.116676   58.416050   91.533241
H   72.567360   86.330421   37.113476
H   11.817505   82.975998   70.748489
H   43.075809   41.365456   70.034317
H   71.383522   45.561562   54.939079
H    1.529571   81.125099    1.774665
H   43.436527   90.450172   54.198006
H   66.463455   37.058617   47.624237
H   94.263176   61.940449   24.518211
H   47.685284   75.900406    5.910686
H   65.383652   98.968651   18.622980
H   21.623049   62.043934   36.822842
H    0.171965   39.354786   23.975981
H   41.166718   38.475220    0.159387
H   44.493767   86.867653   16.886883
H   20.814508   34.106251   97.260277
H   77.734886   75.869331   87.256203
H    1.156390   46.472576   26.213650
