100
TIME:    8.894, STEP:  8894
H   15.857345    6.399465   91.003311
H   54.845474   86.816727   38.900150
H   32.650593   13.773997   18.938255
H   82.969437   66.217644   52.653152
H   15.501276   85.650574   24.552258
H   90.096436   91.572563   59.549339
H   86.835411   61.904785   85.975548
H   20.835434   58.045002   91.575905
H   34.996376   31.170895   40.241673
H   31.833387   44.089664   55.956795
H   72.956818   24.110977   83.034081
H   16.381088   69.500893   59.844307
H   76.608749   23.645912   41.246056
H   14.704003   77.662086   34.077602
H   88.632515   75.576912   23.188637
H   43.915283   33.827293   94.760803
H    8.904441   70.238701   83.044258
H   91.256241   62.056908   91.216873
H   83.792755   51.468945   31.932041
H   52.893879   16.940023   21.877436
H   36.494148   70.792145   15.846220
H   15.056787   55.890900   61.872025
H   66.994484   22.292452   77.882278
H   92.676941   43.226288   46.528706
H   11.484439   80.821854    2.223090
H    5.670490   63.908371   53.917637
H   95.139183   72.765335   76.439255
H   82.091553   71.581558   60.763130
H    4.562133   56.025143   36.747154
H   42.027916   70.712875   90.436432
H   66.092598   19.598209    5.714104
H   27.329762    6.781811   75.901955
H   96.837662   17.754993   99.038712
H   53.895004   58.640656   97.062141
H   59.608650   86.269417   66.172211
H   45.777454   82.048370   91.465279
H   32.849617   78.817146    9.277711
H   96.387474   96.186653   50.065262
H   69.655083   87.633018   82.417923
H   25.478395   79.557167   37.795937
H   27.409208   61.354561   51.883266
H   50.676056   76.480988   34.015644
H   87.828949   16.840488   43.895367
H   11.433079   61.934036   50.341831
H   85.167023   80.988365   17.195055
H   63.318604   32.550243   19.294172
H   11.226518    8.523890   10.841930
H   56.730465   86.975311   18.887455
H   25.011185   95.849831   89.688538
H   12.469007   66.106865   61.665447
H   42.890888   10.985046   47.184967
H   37.377911   38.441715   90.200142
H   93.353584   73.579163   86.323196
H   70.724121   62.095131   24.283451
H   32.641853   38.032471   75.989807
H    4.673225    3.178099   89.854034
H   60.091522   32.914040    1.880776
H   63.790222   36.958992   84.465477
H   91.728844   14.571763   28.692854
H   72.105629   11.409909   10.644066
H   20.740934   64.957153   20.950237
H   83.252464   45.157974   92.929161
H   77.874969    0.371985   23.582184
H   53.775723   90.212402   85.667252
H   85.341507   50.495502   23.828375
H   54.976387    0.126632   72.067055
H   73.986099   55.848965   96.463730
H   65.996323   26.195179   91.387238
H    0.176411   10.720207    2.415578
H   10.657516   95.367813   82.979584
H   39.602833   90.251625   55.465157
H   40.867867   56.284569    7.973021
H   27.086349   78.376396   33.707714
H   34.417141   86.518471   74.702492
H   90.904572   41.411167   75.650742
H   35.917534   77.595573   97.476517
H   74.547684   56.002956   48.480164
H   49.830631   69.169334    5.630970
H   88.013222   27.394238   16.913401
H   63.355186   24.521257   54.695152
H   84.930214   21.294870   11.565524
H    8.695227    2.151548   42.931770
H   80.439781   55.857334   76.963036
H   62.040886   73.238014   51.087193
H   19.267197   92.547836   85.580170
H   46.597546   35.744919   59.409576
H   61.164997   56.685905   47.643471
H   99.069023   93.367714    3.360955
H   40.261478   98.969109   55.449348
H   79.990097   43.353851   42.155449
H   88.001793   53.679485   21.287132
H   36.364834   64.393188    2.995824
H   55.576023   94.378838    6.791255
H    6.836321   52.761585   26.506578
H    2.817524   53.060024   20.460665
H   28.529556   44.517151    8.062275
H   56.638329   78.087242   25.686554
H   21.109835   26.535908    0.332537
H   85.023491   75.208641    0.070803
H   91.652359   50.398197   40.953114
