100
TIME:    6.299, STEP:  6299
H   91.347000   44.371727   93.379105
H   26.511784   46.198261   75.278419
H   88.039322   27.078865   49.403561
H   82.533875   73.131317   94.892700
H   38.751480   77.650055   94.914291
H   30.339527   94.383919    2.556984
H   22.840065   86.676170   83.043083
H   24.797318   33.545383   29.840519
H   98.786430   80.670166    3.586589
H    2.711615    6.828161   54.349064
H   14.337387   19.696234   32.998222
H   15.424652   39.426807   44.558998
H   42.114578   80.677223   99.121269
H   43.191673   85.660591   36.597034
H   57.113655    7.375092   47.983051
H   48.255112   60.795448   10.168778
H   17.579140   98.601585   46.811165
H   35.768276   88.329849   81.168983
H   43.374775   42.604935   95.218796
H   22.811798   72.044228   45.197807
H   90.485138   29.131969   86.277229
H   66.271606   52.445999   82.860260
H    1.641628   43.392860   52.129028
H   33.789791   12.182589   39.254902
H    4.296552   86.617493   83.059425
H   17.831926   40.445656   98.088005
H   18.908714   80.635757   24.948721
H    1.051028   50.455727   74.985733
H   48.136757   20.586552   59.414856
H   42.524204   34.939720   84.141281
H   63.963028   86.899055   11.022102
H   63.479954   78.475967   16.134041
H   14.049835    7.617867   65.260620
H   44.249962   96.457047    6.385013
H   24.191574   82.747383    8.286376
H   20.198923   78.793297   99.622169
H   83.954872   73.852173    4.801944
H    3.644506   43.679569   66.943291
H   79.190155   44.171318   33.892021
H   69.897263   22.491764   33.626369
H    4.760052   72.315361   90.747414
H   69.368546   66.304672    1.535532
H   65.496490    1.273637   56.456596
H   77.130646   18.371298   96.618980
H   10.264534   83.365372   95.132309
H   96.816887   83.060623    8.751589
H   90.945602   67.399002   85.929268
H   56.575817   60.247635   58.324345
H   49.154335   10.767357   93.203842
H   57.989735   26.606890   43.105988
H   43.069073   61.515762   19.828152
H   11.253063   79.239624   60.546028
H   39.532864   58.532471   37.032581
H   30.821533    4.426311    9.774215
H   39.259575   10.618825   53.925488
H    1.441156    5.907786   78.193970
H   95.581825    7.791579   55.074791
H   57.018951   82.024529   51.308090
H   87.065689    4.917237   27.908394
H   43.349251   11.949559   84.452049
H   57.046528   85.638931   23.276653
H   75.354103   69.311874   10.343135
H    1.699030   77.450478    1.529114
H   75.581467   76.076431   56.124447
H   82.341446   57.754421   82.167244
H   14.389301   29.131004   18.629881
H   82.187698   66.132629   71.177811
H   45.250816   77.783607   67.331223
H   70.844734   97.180374   65.171844
H   57.999290   64.965263   88.469238
H   22.011013   66.817139   86.588051
H   54.585056   42.473526   17.804710
H   96.284119    6.733208    0.239145
H   91.544716   50.754795   28.887827
H   65.869377   37.621464   78.904800
H   74.571922   11.279160   72.085724
H   38.866787   80.606468    2.455221
H   27.918804   38.844147   62.311584
H   63.570965   35.016575   87.959450
H   90.616531   65.883308   78.256737
H   34.134140   94.447708   56.465351
H   13.969318   85.320801   60.029224
H   16.300224   12.459912   29.828316
H   83.510445   51.178368   88.100914
H   45.620522   54.880135   37.134903
H    6.316762   40.427002   79.204819
H   87.850685   45.364174   23.904104
H   57.334251    1.020983   30.266975
H   86.404648   43.453590   76.673103
H    9.422086   50.119297   49.390068
H   81.803673   13.560139   66.485153
H   44.361111   69.224365   53.545029
H   89.231613   16.519932    6.115916
H   56.040585   95.326241   51.530869
H   47.686577   85.503494   60.830326
H   14.193206   46.990570   42.097504
H   62.617302   29.166372   74.927994
H   26.118799   98.133972   52.427826
H    8.643270   64.002815   17.429497
H   30.466280   16.992744   90.937599
