100
TIME:    2.834, STEP:  2834
H   25.670189   62.129082   96.551407
H   22.437447   58.401115   56.767841
H   28.468679   77.793533   90.071388
H   81.952286   15.889338   84.822205
H   69.787170   99.915115   88.863876
H   84.073738   98.137810   59.407169
H    4.441202   52.703827   12.075431
H   97.139481   33.778866   47.986042
H   83.962807   13.815950   21.696445
H   97.396141   57.075401   18.665483
H   36.643250   80.274765   66.763367
H   47.675995   65.744461   91.202232
H   62.990196   90.246307   43.452255
H   14.757915   96.340675   72.909431
H   14.972359   16.883062   14.544000
H   87.574951   63.857086   97.794289
H   96.213631   69.416626   31.378550
H   61.706177   56.883247    1.293785
H   89.406639   97.241592   12.669390
H   16.166977   45.630978    9.284479
H   96.103149   74.084198   80.322479
H   34.078690   47.846161   77.937012
H   47.906044   71.573479   51.266678
H   55.732208   70.671082   96.595528
H   28.223297   61.409981   57.471283
H   33.664341   43.164776   23.540922
H   17.699455   24.670530   56.204075
H   93.417503   88.721260   60.450954
H   72.793259    6.214885   23.207216
H    9.661958   20.698837    8.683735
H   27.590239   76.185303   85.161888
H   44.697609   74.209770   36.906471
H   69.981659   61.133278   53.106056
H   97.843864   14.003475   52.358749
H   10.325425   44.691528   97.300316
H   18.959690    7.109835   10.897958
H   51.616013    0.747617   31.773314
H   46.855911    7.083830   22.429340
H   25.448288   19.668665   69.676620
H   96.262558   46.873978   61.008533
H   41.567577   53.423298    9.114066
H   76.917381   39.050079   35.944321
H   35.651737   80.494598    6.176858
H   98.389648   60.270424   57.826736
H   10.827471   20.076809   98.623512
H   41.525097   16.970997   94.676552
H   63.875172   78.959991   52.663963
H   56.390766   24.561991   43.929771
H   47.868942   97.738396   31.424105
H   85.320091   73.879738   85.450958
H   43.328403   96.038727   83.298080
H   42.859241    0.764722   88.014793
H   67.666878   38.441223   38.275116
H   11.066204   60.971245   56.872833
H   15.145016    6.948256   24.452898
H   97.112198    9.553553   96.150757
H   75.914345    7.772962   25.524544
H   15.030879    9.251094   40.559158
H   13.788895   58.512310   93.915367
H   72.003098   45.619236   83.004890
H   38.471992   46.777065   93.435318
H   98.330406    1.563921   67.126801
H   66.462379   13.895479   39.134933
H   37.645012   57.210754   50.199528
H   44.809048   34.496937   59.486931
H   27.247963    1.386404   13.753105
H   60.191475   46.340504    3.887183
H   84.601906   79.616394    1.684188
H   98.147148   46.153160   82.489204
H   87.801575   90.684639   95.765533
H   32.041115    2.573950   28.153641
H   40.290833   57.470184   64.115265
H   22.209692   78.124565   89.082512
H   67.824821   70.039474   34.775505
H   98.810936   32.677959   16.234348
H   92.654045   89.205559    5.237917
H   24.263445   80.914932   41.170475
H   65.126801   65.413719   70.952347
H   97.414459   45.194378   49.300186
H   60.540657   54.609341   76.769608
H   66.340500   58.600689   49.370014
H   53.963043   62.735733   49.800392
H   97.106522   54.560974   99.824493
H   45.124668   54.670624    4.575362
H   14.336816   71.617065   73.027946
H   86.066345   13.151134   38.584866
H   56.431175   97.298027   58.679382
H    1.576594   78.397583   66.271187
H   14.496052   36.379082    5.014039
H   15.774565   92.675858   25.526958
H   40.001587   26.460045   93.310623
H   87.978378    8.639647   87.524010
H   67.118988   12.550375   38.161659
H   21.144329   85.136070   17.901112
H    7.591503   95.876526   81.209526
H   27.998398   83.820076   21.069397
H   37.652420   30.317837   74.203575
H   17.269949   40.367493   10.689903
H   73.708275   49.066555    7.660053
H   15.242304    5.909663   24.731012
