100
TIME:    5.159, STEP:  5159
H   68.440346   48.914711   94.422806
H   57.996010   84.422470    3.396529
H   68.435135   45.062759   62.789028
H   82.342529   20.099720   57.381897
H   48.962357   86.274109   25.822678
H   48.021564   95.618965   89.659203
H   82.586632    9.697248   93.893524
H   14.399071   34.920856   34.511730
H   26.809868   90.276489   75.347023
H   33.857399   90.458961    9.709219
H   20.377411   73.826172   42.808384
H   58.938293   82.284767   25.705469
H   14.860519   49.615715   12.397705
H   99.638512   89.174385   49.843010
H   43.252617    9.204961    2.783011
H   94.090988   60.504044    4.798713
H    9.251038   23.198879   43.032471
H   11.389569   43.798191   20.688208
H   25.621593   94.778458   35.157970
H   53.522705   96.258095   67.581337
H   58.134346   42.622963   17.220531
H   56.978699   50.932632   79.941788
H   16.863945   52.664406   84.744690
H   39.712513   98.544891   23.920551
H   45.068146   77.025574   74.640236
H   23.028688   74.145889    5.289283
H   17.212156   28.022953    2.327540
H   97.240852   97.244400   37.301956
H   23.348854   17.156939   13.303703
H   98.812958   63.154442   93.514687
H   19.093826   84.672943    1.215279
H   91.499733    9.976001   21.669548
H   33.750011   91.025719   62.560417
H   96.080978    0.931253   54.410378
H   52.532867   68.939224   38.874901
H   21.100595   89.503395    3.207205
H   74.613678   15.601791   14.974189
H   50.759945   64.544670   86.497917
H   27.309132   69.011406   44.366592
H   77.272804   29.214722   43.933987
H   82.670868   33.200813   63.889507
H   67.958946   43.396843   45.171612
H   55.678326   94.436935   74.113167
H   49.923222   99.236389   85.155685
H    9.151045   28.344147   97.579613
H   11.528898   61.316853    4.119731
H   82.039352    5.401334   74.987801
H   56.514935   48.505997   87.787636
H   15.834175    5.182176   38.679482
H   34.077442    9.254629   22.837234
H   43.151020   71.575256    7.811060
H   55.849968   85.022903   35.383423
H   15.884345   51.922363    3.241802
H   57.218475   23.028931   59.468651
H   30.028133   10.714704   44.227764
H    0.021193    7.106956   17.002274
H   23.310417   40.686104   46.651329
H   41.905411   89.683525   80.670883
H   97.156837   56.749588   15.423386
H   18.578632   24.325802   16.876350
H   85.134064   38.654575   12.160321
H   15.813379   79.922836   61.927826
H   24.304453   55.242355   79.702332
H   97.298439   69.866409   87.072403
H   37.091827   48.803783   76.004128
H   84.420555   85.803978   51.223671
H   73.652161   26.723160   16.138714
H   23.998512   12.585776   12.832633
H   14.025030   79.093498   36.669373
H   34.907402    7.624265   90.869751
H   58.211250   44.381973    0.260597
H   48.583549   80.307693   34.339363
H   70.614822   63.119164   29.471405
H   16.640049   22.906246   96.623833
H   10.908051   35.995029   92.484833
H   47.621750   38.216225   48.793674
H   35.358517   79.398872   82.287956
H   74.359528   13.385612   99.350853
H    8.906835   38.365116   75.243690
H   46.518127   27.982853   76.468811
H   11.825436   82.653885   88.330620
H   28.411552   77.919754   55.385277
H   44.193634   93.396057   21.260496
H    5.081339   53.626022   92.222412
H    1.128091   26.186172   47.645164
H   32.557079   98.552116    0.039673
H   11.712683   28.251602   69.544540
H   38.997284   92.253006   42.092163
H   62.747421    6.927746   85.996834
H   10.213351   97.018845    8.640135
H   35.150230   52.001926   42.410442
H   60.012653   83.485626   31.827345
H   16.155138   82.317177   17.957966
H   45.865196   26.163759   74.662621
H   67.395134   87.617638   34.633427
H   20.033875   92.008881    0.979677
H   53.105034   63.745113   40.490356
H   25.802092   60.163483   73.478661
H   62.950226   59.088718   12.916161
H   59.654964   46.244701    0.757217
