100
TIME:    4.857, STEP:  4857
H   88.863686   76.609718   94.699295
H   66.336769   68.058914   84.355408
H   63.242081   23.335770   66.333488
H   82.291840   32.542839   73.935310
H   51.667343   62.067474   34.010498
H   52.705753   95.946144   59.751957
H   98.415642   89.305237   70.276733
H   38.135674    8.794766   62.241299
H   34.233604   19.312775   94.355659
H   42.110603   86.122688   97.882965
H   48.468719   61.674473   71.897980
H   70.464302   67.146980   47.202171
H   34.131821   67.877831   42.406006
H   14.591384   90.105232   26.859842
H   39.579918   36.180267   17.300282
H    6.233971   86.917984   29.868004
H   33.536171    3.224471   15.540220
H    4.931680   58.491291   31.156782
H   20.917820   82.110641   19.248316
H   61.658401    2.672148   47.019753
H   76.055458   72.688202   25.417286
H   28.025665   50.531723    5.659847
H   20.896080   55.120552   93.384979
H   67.773560   94.932098   46.350327
H   55.869659    0.974251   72.409889
H   24.405375   83.071884   33.688091
H   43.254486   40.577503   96.336159
H   22.722553   83.148056   27.318392
H   16.782234   89.757256   27.578613
H   87.232666   70.628868   69.506203
H    7.207819   57.591366   25.108559
H   72.431190   18.319481   49.627220
H   12.477428   13.121233   35.353874
H   83.320999   28.607574   67.133492
H   60.039551   91.768021   20.486061
H   94.848694   65.849739    4.157146
H   45.648277   26.662514   91.178024
H   63.241131   70.069847   65.185204
H   40.057590   75.591850   73.632980
H    5.718691   57.487938   20.172613
H    3.310649   22.839376   56.774517
H   95.100975   29.842142   30.985407
H   53.077023   92.625931   52.299400
H   69.206665   94.167419   55.627289
H   35.347103   40.258530   71.737083
H   15.425669   55.556660    2.892076
H   79.679977   88.977562   72.089272
H   56.498806   45.395493   69.101570
H    7.007223   30.192966   50.727501
H   27.743534    4.657995   43.958710
H   43.174061    0.731072    4.627402
H   41.172997   13.045706   55.210007
H    9.620135   50.171265   20.781595
H   64.211418   27.957352   46.141869
H   54.073578   84.246590   41.658718
H   99.643417    7.424630   27.283066
H    4.165485   49.400124   17.928703
H   64.393204   18.203886   88.449448
H   73.337288   43.989609   38.608490
H   38.506596    1.112296   25.465950
H   66.083954   52.697926   35.705780
H   26.530794   82.733810   75.591354
H    3.801620   75.850021    0.411380
H   76.561745   68.221298   95.270309
H   25.104376   72.924316   47.880558
H    2.972820    0.817313   33.367073
H   97.881836   16.282234    1.557464
H   44.859627   95.313675   98.395287
H   98.973068    0.793291   55.611191
H   28.789473   92.435059   91.505676
H   67.800819   64.929733    3.883582
H   73.484589   90.330429   12.228164
H   90.305466   78.058662   37.215408
H   23.287312   42.019115   14.567173
H   96.347420   35.564167   69.591522
H   40.481415   18.860456   69.113907
H    7.938707    5.573456   76.947105
H   60.171017   33.132771   82.673943
H   94.424583   39.252186   71.875130
H   61.328735   44.431377    2.486415
H    5.915952   79.529556   70.280479
H    5.751214   75.947464   80.637962
H   25.090532   88.345520   92.499619
H   84.303452   27.783304   19.805435
H   15.833394   45.077301   76.920769
H   39.508480   87.460289   79.067963
H   91.542763   50.209457   55.144058
H   34.135681   16.431551   45.232620
H   56.480331   23.742060   88.466805
H   36.914486    9.444183   97.844406
H   22.791161   35.695972   36.032757
H   37.667713   60.772034   26.074064
H   96.796745   73.255547   94.603806
H   16.674843    7.845190   54.300282
H   72.616173   14.668671   27.694260
H   95.089844    3.934546   16.578835
H   77.076653   46.413845   57.858490
H   24.693830   57.592133   78.312614
H   77.336884   57.786915   38.212624
H   40.897472   53.993313   29.849951
