100
TIME:    2.803, STEP:  2803
H   27.766506   64.971947   96.579788
H   23.299767   56.720230   54.812366
H   27.935820   75.563232   90.435143
H   81.947083   17.166616   86.521301
H   70.064835   97.430328   89.704437
H   84.554329   98.171394   56.337017
H    6.065886   50.610466    9.651191
H   99.576019   31.097063   50.832455
H   84.724846   16.796509   23.647781
H   98.243324   56.630287   17.451471
H   39.526794   79.027405   69.749557
H   48.859261   64.190582   93.408882
H   64.962105   92.121841   46.533287
H   16.292824   96.436226   70.550468
H   14.595242   19.652018   16.034197
H   88.821365   66.568451    0.367544
H   98.706459   67.366074   28.556498
H   61.043709   58.390770    2.368610
H   88.923683   95.941254   11.036280
H   17.002098   46.289188    7.173864
H   97.942734   77.170197   81.163986
H   31.106689   47.805008   80.576950
H   48.319939   71.825600   52.153595
H   58.612442   70.299286   98.897728
H   29.331944   63.868515   57.242577
H   33.806484   44.088352   26.446581
H   20.372623   25.959162   55.588909
H   96.033318   87.274284   59.426151
H   72.119202    3.402356   24.672522
H    8.473311   21.466080    6.219385
H   26.370195   73.405350   87.614510
H   42.740242   75.066414   39.776299
H   67.798187   63.401421   50.313332
H   96.534065   16.844406   53.664764
H   11.096038   47.034882   95.412483
H   16.264290    4.674568   11.004506
H   48.642830    1.882976   29.330626
H   48.137093    7.651191   20.241848
H   26.756905   20.344023   72.680786
H   99.182526   49.776207   58.569393
H   43.686237   52.359707    8.383765
H   79.703484   37.658684   34.487885
H   35.384716   80.308701    3.937718
H    0.369230   59.750809   54.795845
H   13.516485   21.299809   95.970802
H   41.925037   16.379719   94.550728
H   63.632748   77.274139   52.366196
H   56.389111   24.242819   42.011665
H   46.962868    0.305935   32.660767
H   84.670158   73.408134   87.619293
H   43.330769   99.031540   82.971222
H   41.352665    3.641316   90.049736
H   67.024040   38.261475   40.075676
H   11.784016   61.477142   55.504852
H   17.613029    4.230648   24.189833
H   97.073410    9.586132   97.206070
H   73.948936    8.667506   22.576195
H   17.339203   12.178689   41.357620
H   11.344078   57.202511   96.295143
H   74.048920   43.236385   83.886604
H   36.516518   48.218601   95.852463
H   99.430656    1.852524   68.529312
H   64.359795   16.009535   41.261642
H   35.516174   57.042122   51.041271
H   43.578480   36.972973   56.599838
H   29.152351    2.927494   11.920202
H   62.678627   45.268871    2.390437
H   86.743279   77.843506    0.202209
H   96.602257   48.380623   84.433327
H   87.173401   89.125557   95.830811
H   33.025475    4.683227   28.525555
H   42.846809   58.499008   61.845482
H   24.231035   79.658104   89.877190
H   68.506920   72.001099   36.617928
H   97.316185   32.633732   13.884254
H   91.921333   87.218864    7.323799
H   21.448843   83.601700   40.622242
H   63.670361   67.440620   69.240479
H   95.927750   45.285435   48.954170
H   62.060951   56.297794   79.440292
H   65.734085   58.279980   47.517185
H   51.636955   62.533279   52.392555
H   95.145370   54.043488   96.871887
H   42.992046   52.017914    7.406680
H   15.846290   73.555984   76.033058
H   86.779663   12.012451   36.432140
H   54.360756   99.551979   57.201187
H    1.077673   80.879532   66.593788
H   13.852682   38.105141    5.267668
H   18.515381   93.951126   24.418785
H   38.732941   24.786137   92.655960
H   85.684692    6.308414   86.933205
H   65.129929   11.621536   35.763435
H   18.147968   83.255806   15.810945
H    8.127533   98.653168   80.497154
H   25.437927   85.044258   22.670578
H   40.113083   28.538799   75.986397
H   17.156187   40.103546   11.185926
H   75.185051   48.932926   10.256714
H   13.317062    6.705863   27.716902
