100
TIME:    6.990, STEP:  6990
H   44.616776   81.004433   92.746475
H    7.430079   83.641884   18.846725
H   99.922211   76.792732   41.290089
H   82.649857   44.662994   57.018314
H   32.562256   33.036663   76.177917
H   19.621731   93.635307   70.990005
H   86.624130   33.336010   37.080257
H   70.486076   93.326172   66.396187
H   81.800331   14.233500   60.092518
H   83.837807   16.751040   81.404518
H   50.062256   47.500294   66.436424
H   89.051498   74.063263   95.373695
H   98.020515   38.888615   30.459789
H    8.978470   83.530739   89.181831
H   65.506538   45.651573   14.754192
H   20.471043    0.357916   52.810059
H   62.012886   44.304394    9.715631
H   50.545444   54.705597   57.214912
H   54.134747   71.593796   31.622150
H    4.196678   57.369610   92.244347
H   49.480209   60.341606   67.519768
H   32.518448   53.363312   24.015182
H   92.415627   37.773003   32.359360
H   69.586967   20.448946   87.935410
H   79.582100   31.818146   88.162636
H   14.648830   20.035645   33.092522
H   59.324299   51.912163   38.660961
H   42.745682   82.709282   97.823654
H   63.161705   83.279640   26.750517
H   69.020828   17.837639   39.073143
H   91.155556   48.862038   56.352455
H    7.110176   59.382381   52.164742
H   62.724476   57.060539   27.511358
H   73.445808   33.130844   77.273987
H    6.993947   30.428932   50.329628
H   80.266563   32.915985   97.450142
H   50.230545   48.546997   59.249973
H   75.081764   31.032253   15.706885
H   50.023411   29.115244   66.929398
H    4.813934   57.803661   87.993271
H   57.534470   96.028419    7.026573
H   11.134899   69.014435   36.812069
H   71.443207    5.418865    6.369759
H   33.008450   29.969503   64.179802
H   50.324562   56.100574   54.263493
H   87.896812   96.240402   11.558882
H   96.344040    4.977475   92.561333
H   56.614254   67.364716    1.079520
H   69.352425   53.537380   65.642288
H   72.495850   37.125706   94.790901
H   43.021626   94.803787   27.111298
H   44.841854   15.118614   15.186524
H   53.867191   62.539124   96.900002
H   14.821281   93.153397   40.265030
H   84.240463   71.175835   59.803669
H    2.301796    5.180922   54.670700
H   39.387150   87.852760   20.794746
H    5.566182   16.768190   33.510117
H   41.563072   34.117855   74.862099
H   97.751762   65.063965   64.798363
H    0.634717   53.503082   69.399612
H   50.829170   62.880142   79.079254
H   48.612141   30.298405   54.145172
H   23.030060   79.840576   37.361713
H    9.767058    2.564121   46.517506
H   71.940735   94.779839   59.487198
H   26.748026   90.024933    4.538775
H   97.518486   17.302908    0.365020
H    5.281532   47.529510   21.831600
H   71.999229   99.717705   87.014191
H    0.067445   19.802231   78.300606
H   97.643654   19.522053   68.413277
H   51.230362   72.555176   82.525452
H   76.329979    7.022796   87.831909
H   99.187614   38.607578   31.288090
H   90.904305   55.567257   25.591455
H    1.623675   20.798092   14.710077
H   60.383236   93.661110    0.469967
H   96.710136   32.986889   95.666985
H   56.728683   28.241596   18.726311
H   47.656593    1.596788   97.765503
H   65.819618   89.801926    2.221411
H   60.009644   24.015539   95.635056
H   31.050816   10.308363   24.988850
H   11.974470   11.655599   70.150291
H   90.414841   65.810883   27.190170
H   34.001087   95.122520   56.853554
H   68.447441   45.727383   23.102448
H    0.744349    4.980654   71.021614
H   48.329227   21.687878   74.091125
H   10.082355   50.870758   81.077805
H   95.488113   21.194107   66.710075
H   33.525852   37.254360   59.552010
H   22.823391   37.248009   98.124023
H   35.740425   23.607811   76.709320
H   71.266922   19.704344    6.406307
H    7.769300   68.821503   35.188324
H   24.785006   32.324947   38.557426
H   75.725639   66.986717   59.552471
H   73.386070   99.260849   24.371304
