100
TIME:    1.921, STEP:  1921
H   87.413239   45.855789   97.387283
H   47.834160    8.897959   99.176414
H   12.775099   12.108626    0.784911
H   81.799042   53.505272   34.866421
H   77.964828   26.734135   13.618790
H   98.227913   99.126930   68.989555
H   52.289814   91.052330   40.677559
H   68.899483   54.792042   31.814163
H    6.406151    1.596984   79.167458
H   22.343931   43.966072   82.914360
H   21.568283   43.537998   54.708424
H   82.521378   19.980227   56.189995
H   21.067924   45.484291   34.197350
H   59.964851   99.154793    3.428101
H    3.865969   98.436096   58.433151
H   24.285904   43.711723   73.581802
H   69.621933    9.035805   48.256401
H   42.195427    1.282258   32.949020
H   75.182808   58.943596   64.566422
H   40.762642   65.016708   47.123238
H   50.281769   64.976685    5.105480
H   46.545902   46.635437   55.686119
H   60.095909   78.998848   77.387817
H   40.559822   59.721104   64.405289
H   60.877800   33.821243   50.735512
H   37.850689   70.367218    9.117295
H   96.428551   62.625614   38.086452
H   70.452744   46.105495   30.269899
H   52.941193   23.380041   66.365593
H   74.653191   43.295364   36.102139
H   91.668434   94.310867   57.401485
H   87.050385   99.439308   21.427452
H    5.669722   27.932381   70.855804
H   59.268166   97.674667   90.822998
H   33.022362   13.707408   41.703392
H   39.578472   35.388447   14.035977
H   64.046936   34.185890   59.832584
H   84.592567   23.794346   57.999943
H   64.361404   39.500313   58.009117
H   82.256401   32.345402   89.174515
H    3.963036   22.097727   87.602463
H   58.972656   98.072075   93.052002
H   27.787535   75.019608   40.229126
H   56.690239   44.966919   68.558395
H   90.023018   56.096119   20.495378
H   53.303989   99.556923   90.970833
H   56.364063   29.367891   44.038033
H   56.342007   15.161863   87.438545
H   21.183584   73.351524   67.846634
H   66.178520   59.988247   49.306622
H   43.398060   84.183144   73.671570
H   98.490639   85.484787   47.952618
H   48.728661   33.147339   91.300926
H   32.206913   75.865196   16.584921
H   87.829178   26.909758   16.707045
H   95.969833   10.513069   27.231430
H   18.035433   34.117546   38.690605
H   83.015472   95.472534   64.075150
H   41.781593   19.935522   64.008377
H   32.252499   75.442886    8.972236
H   80.878647   89.236763   64.618248
H   30.731247   10.063740    8.434264
H    4.532400   76.155357    1.769983
H   74.951782   52.244255   74.987144
H    8.569087    7.416493   74.460800
H   83.335274   46.774391   59.769863
H   33.443619   14.777368   59.808361
H   47.669228   27.401672   58.037510
H   52.645866   11.755508   39.751114
H   69.300842   44.764244   97.688049
H   61.032097   64.695976   39.108067
H   15.572167   87.770706   97.267937
H   81.738602   23.286167   12.490704
H   87.913719   27.814508   89.037819
H   54.789566   31.377054   47.023052
H   71.074501   30.690317   66.669426
H   41.369377   60.048462   25.022623
H   22.232403   25.110785   20.529057
H   53.632683   47.874851   39.110725
H    5.315875    4.331705   55.425301
H   48.474552   49.155285   94.802773
H   85.457886   56.773148   26.144949
H   39.344486   39.320160   12.865545
H   82.317818   76.544044   87.967773
H   58.792831   28.724411   61.533035
H    7.076764   79.617149   75.183281
H   95.453957   63.680573   15.144114
H   86.879471   51.494614   75.772316
H   95.547798   87.214302   12.483292
H   96.495834   30.240181   92.889397
H    2.637784   77.159241   74.029739
H   20.421831   39.983013   70.123848
H    8.539379   85.191696   67.528915
H   32.899776   29.755091   56.340797
H   23.379097   77.658478   60.229027
H   52.588318   19.873053   68.226761
H   10.122661   77.922813   26.710983
H   13.918397   32.593842   25.299694
H   17.200977   45.130970   84.137619
H   58.541946   29.360107   12.665873
