100
TIME:    2.145, STEP:  2145
H   72.264801   25.313797   97.182205
H   41.603203   21.042856   13.305920
H   16.625441   28.223495   98.156120
H   81.836639   44.276756   22.588024
H   75.958481   44.688725    7.545486
H   94.755257   98.884254   91.172173
H   40.550800    6.177444   58.194649
H   51.293526   74.171112   11.246635
H    0.899753   80.060333   65.068336
H   16.223204   47.182381   91.684868
H    0.732360   52.551182   33.132496
H   73.973038   31.208254   40.245171
H    6.819525   31.932045   11.933718
H   48.873543   98.464363   20.475216
H    6.590736   78.427307   47.664841
H   15.278809   24.119698   54.988052
H   51.612656   23.849281   68.650101
H   46.982292   90.389153   25.182644
H   78.672554   68.340515   76.368668
H   34.728218   60.260242   62.374214
H   36.989288   42.676220   99.025650
H   68.023590   46.931503   36.611694
H   57.105186   77.177071   70.979126
H   19.747810   62.407627   47.768364
H   52.866081   16.056351   52.388100
H   36.823589   63.692005   88.121208
H   77.113609   53.313358   42.531521
H   51.552505   56.561062   37.673878
H   57.811798   43.702919   55.776726
H   83.242546   37.751419   53.909756
H    0.480013   14.398859   39.677608
H    1.193915   93.249367    0.690694
H   21.448200   11.544075   91.035492
H   68.732521   77.146347   81.385986
H   27.453793   96.774445   55.342796
H   59.054058   52.985859   13.266080
H   85.532288   25.982138   77.482971
H   75.333290   19.694492   73.807396
H   54.533348   34.679504   36.445427
H   61.157513   11.375201    6.797895
H   88.654396   29.783884   92.879807
H   38.840820    8.125525    3.575744
H   29.716978   76.362869   56.408081
H   42.386040   48.721558   90.460739
H   70.591866   47.258961   39.664543
H   50.414097    3.829365   91.880013
H   58.487103   41.490570   46.045837
H   56.353970   17.468138    1.298399
H   27.730703   54.799641   58.911087
H   70.874809   63.397671   33.640362
H   43.380970   62.557655   76.033386
H    9.376139   64.700119   33.246807
H   53.375389   34.446167   78.292137
H   27.020145   72.211388   26.468832
H   69.997635   46.547474   18.607435
H   96.250107   10.277657   19.605942
H   32.235386   27.654167   59.994804
H   66.335785   74.318726   58.305618
H   59.447365   29.400732   46.810867
H   17.471493   92.659195    2.601546
H   95.008530   78.818794   47.154079
H   22.781906    7.978352   98.298752
H   19.726448   60.880455   86.402756
H   90.332642   53.462761   68.906578
H   17.460079   89.526398   95.320663
H   69.574532   35.638649   73.014488
H   15.471151   22.521563   70.622818
H   32.196083   40.212524   68.746002
H   63.810661   95.660316   25.701553
H   73.839905   56.031578   97.216370
H   53.919304   49.454063   36.421131
H   97.102539   80.336624   13.668139
H   67.133621   12.206821    6.746807
H   82.985008   13.639266   75.724831
H   65.588890   31.695780   64.003525
H   76.368935   45.047417   51.597591
H   61.708000   40.632690   28.984903
H   32.756329   10.463934   32.900394
H   64.371140   47.218189   41.609703
H   94.330421   92.132645   36.127449
H   52.858097   51.472668    8.190664
H    2.264211   58.236038    7.413626
H   53.517094   43.059418   34.200443
H   97.726021   95.712013   67.507812
H   47.886093   14.712488   39.818680
H    1.920971   87.844200   90.738457
H   10.414434   47.393951   25.825300
H   90.485428   33.560532   73.441261
H    0.196262   74.742134   10.650833
H   76.692123   21.023628    0.897569
H   11.804901   89.255432   78.760208
H   36.996578   56.828671   74.392891
H   22.911083   91.904587   84.858017
H   54.550900   43.343082   71.443932
H   19.505684   57.594452   65.376488
H   71.089783   11.027964   56.656937
H   92.342636   90.777794   13.828587
H   14.740846   34.501068   21.715099
H    6.530554   46.096546   65.372971
H   72.453079   23.606812   91.091339
