100
TIME:    9.955, STEP:  9955
H   44.105621    9.101129   90.031937
H   25.543236   44.311718    5.798920
H   50.888149   90.106880    6.482878
H   83.147522   22.504911   94.494644
H    5.993948   70.694138   95.785728
H   73.647827   90.423103   64.623741
H   31.228935   33.547646   68.947144
H   37.442932   49.835262   94.158241
H    8.914970   29.159279   73.456642
H    2.850021   59.324055   97.499245
H   74.265106   66.802139   80.830482
H   75.887688   22.682503   84.321556
H    8.952303   59.424934   35.807526
H   62.169403   74.391792   14.819477
H    1.519646   80.803162   72.162621
H    1.252962   41.028305    6.688550
H   23.585243   40.416222   79.631271
H   13.949119   10.428572   54.436264
H    0.322303   95.976364   87.841858
H   24.311184   94.407196   94.115318
H   73.532410   65.167366   87.046097
H   16.775894   57.299393   71.518082
H   52.828232   13.663336   47.556007
H   94.094666   55.918915   67.730591
H   73.536728   96.678467   10.054913
H    0.665551   32.630112   54.072582
H    3.647806   28.658751   97.485703
H   92.567909   21.105457   95.830498
H   27.633129   52.287327   86.594284
H   82.712318   44.453384   74.782661
H    7.846649   14.740219   21.771179
H   94.322220   77.464127   77.679878
H   71.575233   40.126816   94.621971
H   98.723938   61.406334   52.362724
H   33.203453    5.936771   30.723486
H   38.008060   65.154160   88.130226
H   34.613251   39.962166   92.880508
H   52.532032   76.775352   24.937958
H   24.867641   64.514305   79.599174
H   25.544052   80.229233   21.272959
H   54.897522   97.764328   76.879967
H   61.260284   80.647507   88.169426
H   96.959869   23.207039   20.532948
H   43.692188   79.743507   54.079365
H   93.104065   39.085636    7.972243
H   49.630318   52.787212   23.604647
H   19.522511   66.229675   21.030245
H   56.795223   97.903275   84.536179
H   56.022247    7.981535   47.336639
H   34.738091   82.264061   87.479500
H   46.713230    8.844810   52.385529
H   88.941711   39.989021   20.551924
H   15.359383   79.731201   24.701096
H   46.154228   44.780380   71.103035
H   48.163216   31.013151   85.007401
H    5.994699    2.062030   53.735092
H   27.355896    2.298836    2.790718
H   84.786331   36.760490   57.137474
H   75.411278   59.407219   47.240009
H    2.092474   92.962021   80.466713
H   87.673187   15.617922   38.233112
H   45.595512   35.282333   44.923851
H   49.935368   28.019827   50.848679
H   26.631752   95.992081   56.863991
H   27.453266   65.754524   22.634367
H   89.798767   47.381004   34.802151
H   88.859810   92.532745   47.689953
H   92.705681   86.874092   42.109177
H   53.059174   34.483521   35.872768
H   32.205841   48.657108   80.729233
H    5.906824   18.057156   42.740150
H   53.496361   21.056053   85.742950
H   57.907944   25.895201    6.501133
H   11.063679   19.368732   11.661592
H   42.012535   42.973461   56.096363
H   61.003281   45.595341   26.084457
H   70.909126   64.170822   67.299126
H   99.676033   99.796913   64.229210
H   38.891388   24.277744   28.756075
H   11.323319   66.723183   63.289101
H    5.700902   32.271404   74.980232
H   88.310936    9.039353   54.167763
H   47.549484   73.601112   78.007217
H   35.037350   64.030228   54.181236
H   67.606262   26.175194   82.728745
H   22.175571   74.719093   33.088749
H   32.026859   79.542244   98.235893
H   16.131321    8.468638   92.365860
H   62.279301   39.893349   46.771736
H   86.183228   99.698715   80.082962
H   31.422934   10.971742   43.693504
H   14.868090   44.190308   23.208735
H   23.588062   26.214155   88.840019
H    5.478683   16.836212    4.034291
H   84.474243   58.022263   44.840248
H   16.163818    2.620837   53.260269
H   72.421318   38.974640   64.666870
H   19.061853   79.033340   79.027122
H   34.479637   79.790291   11.201405
H   57.553543   23.174114   38.743374
