100
TIME:    1.153, STEP:  1153
H   39.349281   16.285225   98.090408
H   69.197441   67.260475   50.731106
H   99.574585   56.855343    9.801758
H   81.670135   85.145897   76.964226
H   84.843735   65.175560   34.441902
H   10.137058   99.958961   92.930870
H   92.542015   39.194057   80.618874
H   29.262772   88.351273    2.328707
H   25.285057   75.437103   27.509451
H   43.330864   32.938728   52.841873
H   93.005783   12.635814   28.687002
H   11.832294   81.484734   10.857466
H   69.918900   91.949135   10.530446
H   97.992195    1.522341   44.984463
H   94.525078   67.033813   95.348099
H   55.164810   10.886303   37.331528
H   31.367073   58.246719   78.333366
H   25.783318   38.630386   59.574020
H   63.218346   26.722895   24.107355
H   61.452095   81.329208   94.834282
H   95.855988   41.432930   25.950207
H   72.904961   45.621765   21.079105
H   70.349815   85.244942   99.360474
H   11.915375   50.510166   21.442314
H   88.346550   94.732399   45.069496
H   41.372173   93.253937   81.101898
H   62.655350   94.547745   22.846220
H   35.254333   10.257604    4.884248
H   36.241974   53.701023    2.670108
H   45.203976   62.303177   75.048912
H   61.457493   25.439493   18.173481
H   38.558201   20.657089   92.525108
H   51.574169   84.123573    1.668300
H   26.818947   68.057167   23.176954
H   52.112206   71.762154   94.939072
H   72.803650   75.058365   16.677023
H   90.386772   62.310890   99.317329
H   16.336372   37.850986    3.806310
H   98.884842   55.894844   31.617325
H   54.593102    4.242777   28.749376
H   56.445457   95.744926   69.508713
H   27.996117   63.607162   56.969975
H   21.172300   70.414139   84.755440
H    5.732950   32.093872   93.468391
H   56.640518   86.399277   54.774887
H   63.212193   84.908485   87.853645
H   48.254688   87.938385   37.475533
H   56.300991    7.254636   39.919018
H   98.735771   36.957558   98.479446
H   50.071888   48.298794    3.023452
H   43.456654   58.328926   65.573914
H   61.166420   56.749935   98.368546
H   32.797020   28.694214   35.905128
H   49.990116   88.392540   82.695694
H   48.970238   59.583904   10.190113
H   95.008896   11.320198   53.375961
H   69.345718   56.277702   65.647331
H   40.203552   68.001045   83.856400
H   81.211388   87.485184   22.966557
H   82.932419   16.410818   30.815514
H   32.433331   24.952072   24.499046
H   57.988922   17.213394   43.185898
H   52.440903   28.527935   54.457863
H   22.213305   48.066521   95.834801
H   78.087654   68.756859    2.937459
H   30.514565   84.954079   14.359762
H   95.060806   88.224915   22.729504
H    0.720029   83.478073   21.322668
H   14.366632   66.939102   87.918129
H   53.742203    6.135009   99.305237
H   85.418816   16.950838   48.319004
H   78.896561   13.259752   41.038979
H   31.814594   61.272495   32.184063
H    4.813478   76.416275   34.682381
H   17.763050   30.284281   88.802788
H   52.918583   81.469627   18.347710
H   71.640617   26.612425   11.435980
H   86.150360   75.329765   78.116516
H   16.818232   50.124851   30.544819
H   42.980301   46.159843   21.589081
H   33.445255   41.209972   48.900433
H   27.833332   51.757523   90.363968
H   90.750923   26.501104   39.717350
H   29.485868   10.825295   58.116219
H   96.187363   76.763870   35.981956
H   24.754459   51.407505   21.851250
H   44.160988   19.520439   78.522537
H   74.516190   12.982578   83.756706
H   79.610298   29.974482   18.766651
H   64.397141   61.839790   65.432365
H   71.208046   35.690586   57.810986
H   63.597279   82.222908   55.490540
H   59.262520   62.176537    8.113871
H   58.670456   83.171089    4.559998
H   36.658344   46.451416   42.580589
H   89.154633   50.200005    7.894987
H   71.082687   33.848598   70.878952
H   11.098573   26.054779   37.588402
H   53.785728   41.820423   48.469227
H   10.846634   49.088230   86.635323
