100
TIME:    1.391, STEP:  1391
H   23.254560   94.459610   97.872513
H   62.577049   80.163521   65.744102
H    3.664902   73.978294    7.007167
H   81.710083   75.340599   63.919537
H   82.711990   84.252312   27.988564
H    6.446357   99.701118   16.500837
H   80.067497   55.265667   99.230782
H   10.556442    8.941742   80.477272
H   19.434563   52.554443   12.528121
H   36.826683   36.356056   62.162354
H   70.867599   22.212162    5.761671
H    2.747883   93.414513   93.916588
H   54.779900   77.549873   86.874809
H   86.207680    0.788589   63.097027
H   97.419456   45.776035   83.908585
H   45.595566   90.069084   17.575668
H   12.233034   73.986038    0.003075
H   30.869362   27.056503   51.323044
H   66.925819   36.707954   36.645428
H   55.040520   76.274033   11.038340
H   81.732727   17.738609   19.490513
H   95.725883   45.935898    0.813271
H   67.172173   83.309303   92.551239
H   89.802528   53.364597    3.765803
H   79.834099   75.855385   46.825371
H   40.280880   86.161438   58.793457
H   42.131409   84.655289   27.569105
H   15.173447   21.366879   12.751094
H   41.416992   75.294464   91.419609
H   54.330166   56.412735   93.969505
H   70.819740   46.782639   99.340851
H   53.585728   14.081960   70.492241
H   68.338943   66.710091   23.109221
H   36.874825   46.245827   13.150908
H   46.196342   53.771248    9.431587
H   93.496460   93.753799   15.858020
H   13.214356   53.595070   18.070501
H    6.499767   33.494892   20.600880
H   88.186172   50.814247    8.805625
H   32.177101   81.962700   47.475521
H   40.181374    3.911844   75.115891
H    6.606041   74.287743   68.151642
H   23.222334   71.841354    1.947267
H   90.534996   36.083176   16.738977
H   35.996735   77.007980   75.141678
H   60.141682   89.447975   88.819649
H   50.767750    0.776155   39.509224
H   56.313702    9.705053   54.645123
H    5.692557   17.247093   88.986465
H   55.063511   51.921307   86.376549
H   43.438496   35.351845   68.083344
H   72.733040   34.664410   82.745438
H   37.734169   30.074219   22.082127
H   44.479176   84.510368   93.198257
H   30.022408   80.447784   12.209732
H   95.306686   11.070072   45.273880
H   84.434982   49.410362   88.283043
H   22.480896   45.525124   77.726273
H   99.983086   97.541061    4.695110
H   67.225784   34.704960   24.046227
H   47.446331   13.884709    5.943182
H   49.541840   14.997917   32.416412
H   68.584625   12.297443   38.130226
H   38.556740   49.361183   89.374199
H   87.533424   49.747746   25.101973
H   15.893780   73.122353   28.432127
H   75.965897   96.454102   34.220592
H   84.279793   97.089279   32.700443
H   26.229164   49.837936   72.992287
H   58.563141   18.105982   98.804077
H   77.861473    0.756662   45.464573
H   59.271877    5.360586   58.465172
H   16.295895   49.500690   26.081173
H   99.575401   61.355743   20.537331
H   29.237972   30.622927    6.844798
H   58.545734   96.722313    2.333617
H   93.248589    5.984098   15.647264
H   97.332031   59.767899   91.259247
H   28.226877   49.427586   33.199013
H   31.308365   33.196877    1.085381
H   38.102772   43.672192   63.125378
H   45.691471   53.311844   70.462845
H    5.810701   30.473158   62.385746
H   45.858898   31.191263   36.377510
H   84.598953   61.877716   12.910515
H   19.276203   60.150562   38.378624
H   60.056465    2.215892   89.871262
H   78.347519   93.927933   81.283592
H   84.549263   16.723711   16.819210
H   43.355515   52.047203   73.941185
H   80.947975   48.540974   62.837109
H   81.206871    0.123020   60.024582
H   74.533363   69.308517   26.526754
H   81.673378   97.606667   20.607044
H   32.543751   25.132156   48.049767
H    8.812531   40.801445   95.601791
H   52.191147   47.507015   57.191483
H   11.972425   28.081207   33.780678
H   42.447899   42.846348   28.533604
H   25.627213   42.974445   63.712715
