100
TIME:    0.892, STEP:   892
H   56.999916   40.220314   98.329361
H   76.457619   53.108967   34.267269
H   95.090240   38.077648   12.866325
H   81.626328   95.898766   91.269524
H   87.181488   44.255257   41.518883
H   14.184319    0.242830   67.084160
H    6.221481   21.569311   60.208332
H   49.776855   65.770248   26.293381
H   31.700935    0.531124   43.939163
H   50.463600   29.191902   42.620674
H   17.283356    2.134226   53.826942
H   21.794628   68.402077   29.435038
H   86.522125    7.740141   36.471466
H   10.915133    2.327026   25.121525
H   91.350990   90.347626    7.894028
H   65.658813   33.716236   58.996567
H   52.351067   40.986374   54.569527
H   20.205765   51.322754   68.622360
H   59.154160   15.772891   10.357622
H   68.503761   86.830200   77.042076
H   11.343994   67.416779   33.034012
H   47.878651   45.277275   43.303692
H   73.834541   87.367638    6.828203
H   36.165085   47.379887   40.827347
H   97.681633   15.432194   43.143936
H   42.568928    1.031663    5.566363
H   85.160828    5.396854   17.666922
H   57.275810   98.074738   96.257584
H   30.566849   30.020899   15.007141
H   35.195843   68.762863   54.299862
H   51.190495    2.033152   38.826286
H   22.078436   27.867485   16.687141
H   33.188755    3.219738   78.155357
H   15.791274   91.976326   34.171959
H   58.599770   91.491676   79.044739
H   50.111115   54.556225   17.575087
H   65.352501   71.868996   78.751472
H   27.123093   42.628048   85.387398
H   10.618641   61.466423   56.633675
H   79.176582   28.676920    8.214384
H   74.282425   86.788185   63.359455
H   51.453300   51.892509   44.707722
H   18.924154   68.848999   65.902077
H   22.398935   27.720022   67.948250
H   79.280632   96.698135   32.438789
H   66.559166   79.972710   86.816277
H   45.498768   73.860092   35.245308
H   56.287052    4.567415   23.769804
H   91.105217   58.572815    8.891046
H   44.597881   44.326206   21.277504
H   43.476566   83.526482   62.821980
H   48.482018   80.968384   15.503166
H   27.382753   27.180847   51.064682
H   56.033627   92.649879   71.178177
H   69.748611   36.702198    7.975321
H   94.682327   11.594496   62.261017
H   52.799599   63.808693   40.824135
H   59.638367   92.649010   90.578934
H   60.625946   76.457520   43.004276
H    0.156906   96.349121   38.238976
H   15.968523   37.088875   44.847855
H   67.252319   19.642746   54.996132
H   34.736504   46.326118   72.363380
H    4.290810   46.646744    2.920568
H   67.729057   89.601494   78.631874
H   46.548286   97.929207   98.927864
H   16.001764   79.200470   10.127739
H   18.749428   68.551498    8.845359
H    1.358046   85.692902    4.286806
H   48.455376   93.007957   99.854828
H   93.706490   34.710148   51.449284
H    0.418193   21.921944   21.929266
H   48.832016   74.183479   38.876728
H   10.557799   92.931885   50.194389
H    5.179579   29.912909   69.017509
H   46.747631   64.742943   35.909512
H   47.943134   49.233513    6.817722
H   73.888107   92.394966   63.703648
H    4.307144   50.889500   27.634575
H   55.780197   60.375534   44.074524
H   28.337643   38.509808   33.300808
H    8.250168   50.052994   12.189140
H   74.235313   22.145197   14.858334
H   11.530693   88.491188   81.955727
H    8.896128   93.088318   61.283058
H   30.762127   41.819530    3.726357
H   26.729391   38.497261   66.077087
H   70.314606   33.878151   86.468819
H   74.194038   44.506645   20.902290
H   87.472000   72.580307   56.101269
H   60.526859   21.597620   52.299145
H   44.285923   62.592949   50.518333
H   42.515923   54.356812   87.922173
H   33.443031   67.340477   86.961449
H   41.170567   69.830444   36.582878
H   67.597122   60.506828   21.376198
H   91.799881   18.870253   85.889160
H   10.140273   23.832520   41.764099
H   66.219231   40.695354   70.331978
H   94.637650   55.792843   11.773436
