100
TIME:    9.472, STEP:  9472
H   76.769440   53.393990   90.474136
H   38.882034   18.137180   75.345695
H   42.585850   55.357353   12.153168
H   83.066452   42.404778   20.969580
H   10.321978   31.979553    8.881567
H   81.135742   90.946373   16.789421
H   56.541241    0.931757   31.175915
H   75.405777    8.050900   38.506371
H   20.788033   75.597733    3.858140
H   16.044134   52.388889   78.587837
H   19.192657   47.367462   27.356256
H   94.320045   98.473213   18.701679
H   39.751724   88.661125   83.806137
H   86.085037   75.880531   78.063850
H   95.652901   23.947090   95.392845
H   20.674614   83.273117   46.782288
H   62.425117    8.470760   35.661880
H    3.620061   33.931267   71.178787
H   92.797546   75.716248   62.381641
H   37.322910    4.665373   61.230400
H    2.194371   13.249979    0.157313
H   70.470215   56.658203   12.649948
H   59.277351   17.593821   61.345566
H   38.972462   50.140839    3.600597
H   90.811996   34.983704    6.489677
H    2.944031   46.868942   99.524147
H   45.298080   48.737995   87.904709
H   33.322052   98.560654   79.867088
H   17.130886    8.466167    9.425919
H   64.191521   56.407516   36.384987
H   88.838295   71.427628   59.984604
H   63.825184   90.811188   22.393562
H   37.552475   75.465942   51.109520
H   78.316422    5.670449   72.711281
H   45.223915   42.506660    1.336007
H   96.022598   27.320627   89.648445
H   88.287018   57.650154   54.821857
H   72.495232   85.611977   90.854317
H   45.256733   75.038658   26.404991
H   71.036179   25.445900   83.272232
H   87.907730   81.189209   65.500694
H    1.965197   78.747620   63.521549
H   92.803192   20.308788   85.645134
H   74.530678   71.636513    6.856120
H   35.030258   58.188625   66.658768
H   55.861649   43.574718   21.642385
H   15.745450   39.959637   16.392675
H   56.765743   92.928528   54.650852
H   41.905090   47.978626   66.634155
H   24.600660   74.908806   21.250309
H   44.023182   55.272095   51.479019
H   65.468277   84.807938   52.258308
H    5.340796   76.930603   52.754501
H   57.338196   52.662590   49.789009
H   86.619850   88.685577   80.902313
H    5.393124    2.570099   70.177551
H   96.736404   16.236214   56.853493
H   20.751249   82.373390   69.578026
H   37.315777   38.996017   84.320122
H   33.964420   55.838543   94.204384
H   57.204807   38.079327   75.888939
H   62.738121   39.778030   66.779106
H   17.114334   60.930809   83.946991
H   93.464966   93.360992   69.977219
H    8.282065    4.329454   77.654610
H   19.469536   71.392448    6.243102
H   27.612537   75.832336   24.370686
H   26.070084   59.251350   19.018982
H   28.985086   69.188828   66.166870
H   22.396378   24.398767   81.753662
H   21.246170   50.923649   48.532967
H   93.271248   37.093163   50.338917
H   89.399933   49.785511   18.886410
H   21.694897   49.936550   40.359047
H   18.746511   42.262257   19.474859
H   49.583473   14.638709   58.582787
H   27.042706    5.973911   58.732925
H   76.983818   31.377434   37.553482
H   15.731166   25.696468   23.364923
H   35.009056   93.034065    4.900015
H   96.245735   27.274546   46.111961
H   52.066513    5.903728   94.576546
H   16.998075   65.523598   32.008518
H    1.808054   22.698879   98.297203
H   91.123917   56.388489   29.549475
H   33.293209   56.978058   99.547485
H   99.768303   14.660571   75.204659
H    8.364252   47.117836   97.370087
H   52.256107   66.786461   50.722054
H   28.886553   19.571854   62.815315
H   11.656404   84.890518   33.493431
H   79.130981    7.864620   14.007295
H   92.627075   11.721060   51.488884
H   61.524147   87.738510   67.280251
H   92.824448    1.284749   33.741035
H   76.269943   21.693075   78.207703
H   10.759768   11.257308   92.444382
H   19.994158   55.133816   88.726036
H   57.488762   77.704582   51.658993
H   27.553978   35.568073   85.272156
