100
TIME:    2.875, STEP:  2875
H   22.897640   58.369164   96.513870
H   21.296959   60.624222   59.354115
H   29.173429   80.743286   89.590294
H   81.959167   14.200033   82.575012
H   69.419937    3.201433   87.752167
H   83.438118   98.093391   63.467693
H    2.292426   55.472466   15.281684
H   93.916962   37.325764   44.221432
H   82.954948    9.873901   19.115646
H   96.275673   57.664101   20.271112
H   32.829529   81.924500   62.813984
H   46.111031   67.799591   88.283760
H   60.382339   87.765762   39.377342
H   12.727887   96.214302   76.029350
H   15.471127   13.220836   12.573092
H   85.926468   60.271088   94.390968
H   92.916664   72.128647   35.110943
H   62.582344   54.889427   99.872253
H   90.045387   98.961395   14.829309
H   15.062462   44.760441   12.075953
H   93.670151   70.002716   79.209518
H   38.009399   47.900589   74.445480
H   47.358635   71.240028   50.093658
H   51.922867   71.162811   93.550682
H   26.757023   58.158371   57.773766
H   33.476345   41.943272   19.697954
H   14.163975   22.966211   57.017681
H   89.957878   90.635002   61.806339
H   73.684753    9.934686   21.269232
H   11.234038   19.684097   11.943008
H   29.203844   79.862015   81.918098
H   47.286385   73.076790   33.110893
H   72.869476   58.133476   56.799660
H   99.576180   10.246138   50.631439
H    9.306228   41.592255   99.797127
H   22.524574   10.330645   10.757039
H   55.548286   99.246078   35.003963
H   45.161446    6.333450   25.322475
H   23.717537   18.775450   65.703369
H   92.400665   43.035545   64.234474
H   38.765469   54.829983   10.079930
H   73.232536   40.890312   37.870575
H   36.004894   80.740463    9.138288
H   95.771469   60.957657   61.835335
H    7.271032   18.459293    2.132026
H   40.996143   17.753010   94.842964
H   64.195602   81.189667   53.057785
H   56.392956   24.984121   46.466621
H   49.067299   94.342583   29.788603
H   86.179680   74.503471   82.583160
H   43.325275   92.080490   83.730377
H   44.851810   96.960342   85.323418
H   68.517082   38.678955   35.893730
H   10.116840   60.302155   58.682098
H   11.880651   10.541457   24.801519
H   97.163498    9.510464   94.755020
H   78.513756    6.589854   29.423973
H   11.977979    5.379086   39.503128
H   17.022362   60.244625   90.767921
H   69.297333   48.770748   81.838753
H   41.058266   44.870518   90.238449
H   96.875237    1.182220   65.271866
H   69.245216   11.098026   36.323105
H   40.460571   57.433784   49.086254
H   46.436573   31.222218   63.305344
H   24.729256   99.348183   16.177261
H   56.902016   47.757824    5.866733
H   81.769768   81.961182    3.644225
H    0.190411   43.207161   79.917946
H   88.632385   92.746651   95.679199
H   30.739067   99.784264   27.661755
H   36.910347   56.109482   67.116943
H   19.536303   76.096336   88.031487
H   66.922691   67.445068   32.338753
H    0.787788   32.736454   19.342537
H   93.623116   91.833122    2.479182
H   27.985983   77.361465   41.895557
H   67.053055   62.732830   73.216431
H   99.380753   45.073948   49.757820
H   58.529945   52.376225   73.237411
H   67.142532   59.024853   51.820530
H   57.039482   63.003494   46.372047
H   99.700302   55.245392    3.729496
H   47.945232   58.179047    0.830719
H   12.340415   69.052689   69.053444
H   85.122925   14.657135   41.432018
H   59.169472   94.316994   60.634415
H    2.236456   75.115005   65.844521
H   15.346960   34.096230    4.678595
H   12.149544   90.989212   26.992607
H   41.679474   28.673923   94.176468
H   91.011963   11.722889   88.305397
H   69.747696   13.780352   41.332603
H   25.107258   87.622871   20.665527
H    6.882569   92.204193   82.151695
H   31.384827   82.200996   18.951706
H   34.397995   32.670757   71.845650
H   17.420408   40.716583   10.033873
H   71.755119   49.243290    4.225726
H   17.788874    4.857655   20.781378
