100
TIME:    4.676, STEP:  4676
H    1.104111   93.208382   94.865005
H   71.335701   58.250809   72.943481
H   60.130867   10.314380   68.457344
H   82.261459   39.999809   83.855843
H   53.288544   47.559525   38.918289
H   55.513165   96.142235   41.826229
H    7.901840   77.084091   56.122295
H   52.361916   93.135773   78.859444
H   38.682930   36.715134    5.748775
H   47.057060   83.523796   90.796082
H   65.304901   54.391499   89.333481
H   77.371666   58.074333   60.086159
H   45.681839   78.823006   60.391113
H   23.552921   90.663124   13.085162
H   37.378731   52.348083   26.000771
H   13.512070    2.748909   44.892517
H   48.091072   91.252182   99.063072
H    1.061198   67.297935   37.431591
H   18.098671   74.518341    9.713060
H   66.535149    6.515940   34.696419
H   86.796257   90.706451   30.329910
H   10.673019   50.291443   21.073654
H   23.312691   56.592613   98.563431
H   84.590408   92.762939   59.793587
H   62.343414   15.328918   71.073158
H   25.230474   88.421570   50.707935
H   58.863029   48.102139   92.745766
H   37.994572   74.699585   21.334864
H   12.846334   73.335350   36.134438
H   80.292160   75.108574   55.117012
H    0.084033   41.361408   39.428703
H   61.002697   23.319794   66.383308
H   99.727760   26.363569   19.047964
H   75.673462   45.195190   74.758934
H   64.538589    5.450317    9.464935
H   79.114487   51.673206    4.726604
H   28.288580   33.291489   76.915878
H   70.722816   73.381294   52.412945
H   47.698223   79.535759   91.173431
H   22.766844   74.432365    5.931871
H   15.680309   16.629377   52.510235
H   11.368546   21.718878   22.483080
H   51.517963   91.540527   39.226227
H   80.764969   91.133270   37.929787
H   51.046787   47.399269   56.248676
H   17.760891   52.104359    2.156305
H   78.265915   79.134361   70.352074
H   56.489140   43.531250   57.902306
H    1.716747   45.182858   57.948334
H   23.947384    1.903059   56.617607
H   43.187870   18.205914    2.719315
H   32.376534   29.841150   67.092468
H    5.865660   49.121765   31.293852
H   68.403893   30.911140   38.154625
H   68.484863   68.382576   40.118992
H   99.416946    7.615025   33.444733
H   92.690414   54.622765    0.713856
H   77.870987   35.297478   93.111435
H   59.061813   36.342072   52.504692
H   50.450176   87.200806   30.614021
H   54.666504   61.114635   49.817406
H   32.954247   84.418533   83.780212
H   91.513954   88.200974   12.823112
H   64.133461   67.235321    0.183677
H   17.920137   87.379791   31.025003
H   14.091309    9.815050   22.664938
H   12.404112   10.024922   92.818893
H   57.362480   84.962296   89.742439
H   89.952896   13.798782   66.963379
H   25.122438   83.332031   91.886810
H   73.548210   77.244781    6.054911
H   88.409576   96.337433   98.976189
H    2.106920   87.012550   41.856682
H   27.271572   53.473850   25.321251
H   87.620003   35.305935   55.870693
H   36.201942    7.260022   81.293625
H   91.505356   21.261402   73.746132
H   51.667309   44.968639   72.678841
H   85.744118   39.783840   69.856224
H   70.205292   54.289768   18.079521
H    2.374064   77.657028   59.462353
H   92.170784   74.765396   95.772850
H   13.641321   85.318542   75.262970
H   71.850311   12.294292   36.336433
H   24.647112   56.399467   94.466743
H   43.674717   80.812538   66.498825
H   79.454185   63.369629   46.513306
H   31.222124   30.922239   47.114815
H   52.724228   33.819450   89.947151
H   52.917973   16.891487   91.373413
H   15.383903   25.922768   32.210369
H   24.275244   47.159241   22.625750
H   85.194252   67.823006   80.606796
H   99.180283   96.866287   42.097088
H   75.745338   30.882057   23.535618
H   80.139999   11.081747   25.927666
H   91.443748   36.026562   68.267868
H   24.029608   56.051025   81.209785
H   85.959351   57.006695   53.373749
H   29.655397   58.637348   47.286747
