100
TIME:    4.349, STEP:  4349
H   23.216957   23.195770   95.164383
H   80.366920   40.530159   52.324944
H   54.510056   86.788826   72.294365
H   82.206573   53.471794    1.778740
H   56.217453   21.349031   47.784851
H   60.585117   96.496498    9.441816
H   25.039658   55.003986   30.550470
H   78.063469   64.844604    8.882568
H   46.721214   68.154755   26.332533
H   55.993477   78.828560   77.992706
H   95.721649   41.233860   20.832134
H   89.850716   41.683418   83.362755
H   66.548447   98.596886   92.883545
H   39.743599   91.671028   88.200623
H   33.402000   81.557343   41.720104
H   26.660976   31.349724   72.036072
H   74.386391   69.622162   69.294975
H   94.070885   83.208687   48.768314
H   13.005512   60.801285   92.485184
H   75.346825   13.460249   12.432718
H    6.200882   23.260487   39.204193
H   79.323212   49.857346   48.920746
H   27.678612   59.252083    7.919507
H   14.972313   88.841095   84.078522
H   74.039093   41.262489   68.658180
H   26.721125   98.086472   81.457909
H   87.059853   61.696369   86.259254
H   65.584839   59.436325   10.525159
H    5.735496   43.667049   51.592293
H   67.753235   83.201744   29.121208
H   87.215782   12.039117   65.299904
H   40.355633   32.353508   96.655357
H   76.695656   50.288521   89.589218
H   61.857193   75.162872   88.535286
H   72.666687   30.169182   89.552521
H   50.688602   26.061466    5.755402
H   96.925003   45.266586   51.149464
H   84.239708   79.363853   29.338428
H   61.502018   86.660942   22.861696
H   53.565674    5.044011   80.205078
H   38.027924    5.410135   44.806255
H   40.757797    7.042652    7.121371
H   48.701321   89.579605   15.606987
H    1.646465   85.654663    5.957291
H   79.411659   60.299942   28.266699
H   21.979618   45.867329    0.826974
H   75.711227   61.351341   67.213600
H   56.471676   40.163254   37.669380
H   92.157028   72.264801   70.992371
H   17.089146   96.927452   79.489235
H   43.212818   49.775810   99.271973
H   16.485800   60.185459   88.557831
H   99.082970   47.225708   50.286808
H   75.978142   36.247543   23.725349
H   94.520721   39.724285   37.337276
H   99.007797    7.958997   44.576584
H   71.958527   64.058144   69.613518
H    2.220305   66.178261    1.534065
H   33.272942   22.524948   77.608635
H   72.028732   62.067875   39.914680
H   34.039398   76.322533   75.312996
H   44.560112   87.462204   98.574448
H   69.315117   10.514874   35.246483
H   41.677673   65.454025    9.062710
H    4.940804   13.496220    0.572082
H   34.179054   26.071022    3.330520
H   38.640488   98.719879   77.031723
H   79.950508   66.261185   74.109947
H   73.656784   37.294922   87.470734
H   18.497465   66.886230   92.575378
H   83.931618   99.493515    9.977848
H   15.372505    7.190084   75.035973
H   23.428759    3.188419   50.241745
H   34.471600   74.167091   44.750847
H   71.852791   34.839405   31.082193
H   28.470522   86.303062    3.297609
H   61.816910   49.604488   67.963158
H   36.304256   66.351402   54.620094
H   70.061729   40.744343   66.208809
H   86.241943   72.099098   46.250938
H   95.976578   74.274063   39.917995
H   67.636803   72.629837   23.117025
H   92.957130   79.851044   44.120831
H   49.353722   84.312202   66.202011
H   40.569580   76.852867   26.165527
H   51.201565   68.802513   43.791046
H   57.614601   87.145187   30.920729
H   25.959318   57.102745   50.515244
H   45.938339   52.026588   92.621590
H   81.828812   30.346008   79.682724
H    2.001591    8.265736   25.304728
H    0.078391   22.567879   16.394957
H   64.232841   58.009941   55.319378
H   67.576004   77.032532   20.049757
H   81.398582   60.173645   16.022491
H   53.131165   23.993885   42.817543
H   17.399323   17.260586   87.073761
H   22.829603   53.266815   86.443901
H    1.536926   55.597126   80.762764
H    9.344929   67.028297   78.787567
