100
TIME:    3.691, STEP:  3691
H   67.714996   83.537872   95.766800
H   98.597633    4.864132   10.826952
H   43.199677   39.448891   80.015343
H   82.096130   80.580559   37.846760
H   62.111099   68.607430   65.626434
H   70.787727   97.209358   44.278320
H   59.523518   10.570866   79.093941
H   29.780975    7.920969   69.299385
H   62.896111   31.418884   67.752922
H   73.975624   69.380653   52.227043
H   56.927200   14.757692   84.213463
H   14.964424    8.701368   30.199141
H    8.478444   38.396866   58.272896
H   72.324318   93.699165   38.127140
H   25.397823   40.332047   73.350533
H   53.117630   88.900627   26.656347
H   27.298988   26.101910    9.394644
H   80.014488   15.207511   71.583191
H    2.757215   33.195526   57.816982
H   93.077965   27.433813   67.633080
H   45.247543   88.766418   57.060837
H   16.240112   48.983841    4.955524
H   36.463860   64.603554   26.747009
H   76.107597   80.949432   32.947636
H   97.573517   93.444031   63.798683
H   29.732882   17.630518   43.213173
H   43.799969   89.046524   73.206886
H   21.106283   28.723099   88.776085
H   91.427673   83.968552   82.697090
H   42.522003   99.487083   76.812653
H   61.321369   53.034069   17.358772
H   98.809334   50.531441   57.569695
H   30.346155   98.431679   30.311384
H   34.055649   35.464546   16.255180
H   89.022308   79.908745   49.483566
H   93.478096   74.433441    7.946137
H   33.814186   69.363266   99.301811
H   11.437236   91.402153   82.904961
H   89.273895    0.998289   86.627174
H   15.542839   66.645081   28.434099
H   82.998352   82.830627   29.304060
H   99.895065   77.513138   76.207733
H   43.033581   85.633774   68.077415
H   43.663315   74.630432   41.620277
H   36.488865   86.263397   71.959534
H   30.468678   33.316975   98.154976
H   70.570602   25.567322   60.895798
H   56.436535   33.386063   96.956123
H   72.919846   26.761055   97.237671
H    3.288776   86.917290   25.511189
H   43.263020   13.301186   92.334137
H   84.508789   21.241692   31.754726
H   85.438225   43.410400   88.501930
H   91.219292   46.985626   94.690887
H   46.910629   82.056335   31.739935
H   98.184494    8.651739   66.976456
H   30.245211   83.044319    7.032252
H   51.216545   28.318470   18.483547
H   81.377922   94.721924   28.122704
H   15.451613   11.489950   58.629768
H   92.531410    6.924464   26.616619
H   67.913811   93.586777   28.348129
H   24.641890   55.416069   80.367516
H   96.493462   61.872627   26.929394
H   78.825447   66.051003   39.296207
H   74.601234   58.782265   64.424530
H   91.432297   75.968597   45.264263
H   25.403313   28.629980   42.653744
H   40.861679   84.574615   28.739338
H    5.166479   33.788872   93.960938
H    4.825737   44.264488   17.872021
H   69.626450   29.028183   26.859089
H   66.331390   35.733997   67.113518
H   48.959728   15.805222   83.847710
H   40.129276   33.900639   81.200600
H   12.913352   44.131508   47.571568
H    2.073409    6.634876   56.326466
H    5.390223    9.374655   18.279291
H   38.509178   42.677097   58.865852
H   18.511879    7.933453    2.938335
H   83.104935   67.466751    0.591746
H   18.264076   68.332596   78.138184
H   51.328587   68.866974   81.449463
H    4.085558   28.006115   26.301216
H   72.608124   18.009724   89.951447
H   66.346558   44.631531   98.097305
H   13.668280   34.987160   99.544327
H   15.369329    9.783855   57.357697
H   32.283554   88.663582   98.003181
H   40.004612   57.419632   56.160011
H   75.073517   72.733864   11.408975
H   51.391754   73.087456    3.856410
H   22.054203   38.265724    4.435177
H    3.976306   37.119026   75.682991
H   92.774223   19.111988    0.903081
H   98.783020   49.977364   76.803902
H   69.628174   79.499611   24.916712
H   20.414915   47.664337   96.976158
H   32.882561   52.760746   35.877144
H   68.471916   83.916054   42.174263
