100
TIME:    3.592, STEP:  3592
H   74.410065   92.616699   95.857437
H    1.351551   99.496475    4.582237
H   41.497963   32.326317   81.177010
H   82.079514   84.659233   43.273663
H   62.997833   60.672146   68.310806
H   72.322517   97.316612   34.473640
H   64.711845    3.885747   71.352013
H   37.562180   99.356339   78.388786
H   65.329720   40.937302   73.984230
H   76.681145   67.959160   48.350037
H   66.135941   10.774376   93.750008
H   18.743240    3.739170   37.246086
H   14.775653   44.386475   68.112633
H   77.226280   94.004311   30.592922
H   24.193481   49.175217   78.108986
H   57.098114   97.559502   34.874367
H   35.259956   19.554127    0.382279
H   77.899620   20.021889   75.015320
H    1.215332   29.042078   52.601566
H   95.745720   29.536219   60.892693
H   51.122345   98.621704   59.747475
H    6.748886   48.852417   13.386261
H   37.785652   65.408714   29.579800
H   85.305763   79.762085   40.300579
H    1.114343    1.294853   63.067543
H   30.187201   20.580381   52.492157
H   52.337238   93.161453   71.243080
H   29.459635   24.102112   85.504082
H   89.275040   74.986404   87.376991
H   38.725815    1.937439   68.942322
H   57.424725   44.156910   25.191338
H   92.558388   53.266418   66.734627
H   23.372755    5.674873   21.392683
H   29.872551   44.537331   20.425625
H   91.483109   87.392357   43.455437
H   84.869072   66.656769    8.287900
H   24.318878   72.988754   91.500969
H   15.528939   93.213387   75.918343
H   93.452271    3.155077   96.221123
H   24.867519   75.912735   20.644964
H   89.764420   79.433243   26.971663
H    8.792686   73.070404   71.556534
H   42.180836   85.040100   60.926464
H   49.985260   72.971771   31.940977
H   45.075985   90.169861   63.487972
H   31.745907   31.428699   97.753151
H   69.797165   20.183094   59.944862
H   56.431248   32.366394   90.830559
H   70.025497   34.959946    1.186591
H    1.212428   85.411201   32.435116
H   43.270573   22.859257   91.290298
H   79.697464   30.428150   38.254169
H   83.385292   42.836365   94.251350
H   93.512413   48.601234   90.322174
H   54.793045   73.379333   30.898142
H   98.060623    8.755972   70.346649
H   23.969339   85.900902   97.616432
H   58.588371   37.667847   21.033852
H   73.569527   90.539017   35.723194
H   21.984306    3.880202   61.445564
H   86.286507   11.528268   34.335133
H   71.427513   94.508255   32.827873
H   17.920763   62.171562   87.156242
H   89.695671   61.334091   29.617542
H   74.896324   73.957588   30.076815
H   80.682991   63.703865   58.570877
H   99.375137   72.545532   40.484661
H   32.241890   22.967798   37.920971
H   35.927238   91.688126   34.948742
H    3.160773   28.809355   94.169403
H    7.969526   51.000343   19.059746
H   77.789841   32.313782   19.610756
H   72.786270   40.630672   69.651360
H   51.139553   22.070141   89.730064
H   35.356472   33.759396   73.695839
H   10.572835   37.786148   54.232647
H   93.085121   15.215576   54.575657
H    0.739017   15.848040   12.811712
H   33.762054   42.967892   57.760834
H   23.367012   13.325233   11.467157
H   81.168320   66.442551   94.674667
H   10.835732   67.686050   86.416382
H   45.064800   67.214355   72.020172
H   97.274399   19.534180   35.343033
H   77.428513   24.202511   99.548416
H   68.624573   40.994713   91.222473
H    7.056295   42.185265   94.823639
H   13.776003   17.709930   58.387184
H   30.228786   94.175835   98.812874
H   48.757900   61.493019   52.621384
H   71.022034   67.387779    9.318276
H   44.066002   65.643120    1.969882
H   15.708457   35.295090   96.779320
H   94.407784   31.113613   69.007561
H   94.485756   27.980083   98.628166
H   90.606033   53.886848   81.917351
H   77.486420   73.818169   30.610617
H   20.051611   46.821411   98.560799
H   37.598717   52.333996   44.169693
H   62.322392   86.456917   51.711563
