100
TIME:    3.465, STEP:  3465
H   82.998688    4.263228   95.973709
H    4.884408   92.611237   96.571213
H   39.314957   23.189743   82.667229
H   82.058197   89.891472   50.235447
H   64.135361   50.492535   71.754395
H   74.291389   97.454201   21.896311
H   71.368416   95.310310   61.420448
H   47.544128   88.368637   90.048927
H   68.451622   53.147797   81.977928
H   80.151863   66.135628   43.376503
H   77.949173    5.664410    5.983500
H   23.590813   97.373413   46.286232
H   22.854095   52.070114   80.735893
H   83.514656   94.395760   20.927814
H   22.648518   60.519485   84.213264
H   62.204391    8.667534   45.416359
H   45.472511   11.154305   88.820969
H   75.186607   26.197868   79.418152
H   99.237129   23.713915   45.911083
H   99.167992   32.233204   52.245934
H   58.658707   11.265152   63.193970
H   94.573273   48.683823   24.201492
H   39.481285   66.441597   33.213623
H   97.105431   78.238922   49.733143
H    5.656426   11.366913   62.129616
H   30.770014   24.364550   64.395531
H   63.289089   98.440201   68.723854
H   40.175182   18.174179   81.306664
H   86.513580   63.463852   93.380501
H   33.855957    5.080899   58.846039
H   52.425999   32.769039   35.239174
H   84.539497   56.774925   78.491661
H   14.427038   14.966488    9.951520
H   24.506115   56.176155   25.775589
H   94.639893   96.992546   35.722382
H   73.825172   56.679920    8.726342
H   12.137937   77.639633   81.493828
H   20.777672   95.536888   66.955711
H   98.812408    5.921865    8.528238
H   36.829288   87.801544   10.652842
H   98.444122   75.074982   23.979597
H   20.206718   67.371140   65.589844
H   41.086910   84.278519   51.753574
H   58.095230   70.843994   19.523615
H   56.091785   95.181183   52.620419
H   33.384373   29.006367   97.237679
H   68.804977   13.276055   58.724976
H   56.424465   31.058683   82.972511
H   66.312546   45.477715    6.252866
H   98.549370   83.479149   41.317326
H   43.280262   35.120499   89.951233
H   73.525360   42.213219   46.591839
H   80.751732   42.099976    1.626985
H   96.454094   50.673782   84.717865
H   64.904831   62.248383   29.818266
H   97.901718    8.889685   74.670029
H   15.918471   89.565407   85.537712
H   68.045158   49.661301   24.305454
H   63.552742   85.173065   45.473568
H   30.364609   94.118790   65.057747
H   78.275368   17.434216   44.236660
H   75.934990   95.690353   38.574615
H    9.298711   70.837700   95.865013
H   80.975273   60.643242   33.065975
H   69.855934   84.100380   18.249533
H   88.484840   70.017433   51.061646
H    9.564827   68.154327   34.353252
H   41.014610   15.704192   31.849638
H   29.597198    0.813532   42.914341
H    0.587829   22.421663   94.436829
H   12.002468   59.641289   20.583393
H   88.262070   36.528641   10.312388
H   81.066772   46.912266   72.906975
H   53.935894   30.106956   97.276115
H   29.233564   33.578205   64.068520
H    7.570336   29.646280   62.777668
H   81.554817   26.223141   52.329670
H   94.772324   24.152281    5.797810
H   27.672308   43.340931   56.343285
H   29.595314   20.241962   22.408249
H   78.683975   65.128677   87.084045
H    1.306500   66.856644   97.035889
H   37.029438   65.094330   59.924015
H   88.536560    8.666306   46.942131
H   83.612244   32.146793   11.859465
H   71.546875   36.329300   82.403244
H   98.574226   51.419197   88.767807
H   11.732038   27.877914   59.707840
H   27.592804    1.247056   99.851570
H   59.986866   66.717972   48.081932
H   65.824677   60.530163    6.636270
H   34.668320   56.092514   99.549751
H    7.567723   31.484274   86.958214
H   82.133339   23.410110   60.444534
H   96.681358   39.356327   95.709740
H   80.116364   58.902046   88.477028
H   87.567200   66.529854   37.914528
H   19.585554   45.740082    0.593410
H   43.648735   51.786549   54.807610
H   54.434307   89.716408   63.946281
