100
TIME:    8.393, STEP:  8393
H   49.737541   52.342949   91.461990
H   68.682297   59.669956    7.310104
H   24.038889   77.730164   24.818905
H   82.885345   86.858208   80.114326
H   19.990599   45.493214   38.135757
H   97.863403   92.115334    9.932567
H   13.093513   28.073374   46.796696
H   60.213043   14.703610   37.576576
H   47.311913   79.339890   71.778748
H   45.517342   36.896046   36.340614
H   19.558609    3.953271   31.293596
H   35.504189   44.388210   95.506615
H    8.555922   53.968430   91.033936
H   39.509621   79.206306   95.950325
H   82.547371   20.328690   47.280762
H   64.058945   77.646446   36.348907
H   49.191933   37.102230   37.436256
H   80.542969   86.435707    8.584286
H   75.987564   30.449970    5.538830
H   66.391190   27.579470   87.767097
H   66.224205   20.667393   29.444147
H   67.025429   55.225815    4.536798
H   73.683556   26.365141   92.216003
H   39.227165   37.232880   83.737030
H   29.401836   20.553101   98.524147
H    8.033644   78.677841    1.063091
H   38.341110   93.589371   66.501205
H   24.365019   48.196568   44.200989
H   93.668221   10.570822   60.430290
H   22.817814   83.112503   50.607788
H   46.373623   74.671684   45.351631
H   95.696556   20.623051   22.281990
H   61.549679   54.410362   53.904678
H   32.726959    4.554379   18.167528
H   72.077080   24.202110   35.689426
H    2.227170   42.806297   93.040077
H   84.796745   97.164314   69.800926
H   17.094555    5.354370   14.712562
H   90.800194   98.549583   30.967915
H   72.665985   26.458517   98.377991
H   61.649353   44.165558   40.079922
H   92.897476   74.516312    8.438695
H   83.517365   13.834917    7.709179
H   43.422131   53.521095    1.358701
H   28.625530    0.749935   74.322807
H   69.785576   22.996227   17.258783
H    7.309504   81.277718    6.030772
H   56.699886   81.815170   87.888847
H   10.367851   37.341637    9.673006
H    1.952832   58.480267   96.693504
H   42.925289   59.353600   41.902512
H   13.028316   84.930954   23.088409
H   82.964500   70.674194   15.419756
H   82.328705   70.268158    2.177023
H   72.531654   94.126968   71.731735
H    4.049231    3.705102    6.909271
H   28.331810   47.370079   54.231621
H    1.096100   84.271751   97.369652
H   52.213634   93.402229   67.156448
H    5.168303   72.902740   24.893700
H   89.137161   88.258057   60.010593
H    1.033940   49.821213   15.597498
H   43.861645   34.560211   57.937256
H   19.371662   87.483261   99.267090
H   65.457764   90.508911   77.172333
H   85.753761   25.032310   42.444019
H   14.182287   38.530003   72.276047
H    0.603682   97.541374   67.436539
H   75.208954   46.718880   33.838524
H    0.482212   70.201614   84.042191
H   55.515179   24.340862   61.473854
H   82.123917   72.919334   71.248642
H   59.751953    3.160065   46.554554
H   45.444553   18.227283    4.470553
H   66.770401   40.673458   37.664463
H   24.072145   45.485825   31.187307
H   29.046581   99.364136   39.593254
H   26.296103    1.926677   77.958008
H   63.986076   28.865833   11.322136
H   87.925102   51.813194   97.856865
H   75.122124   16.111795   81.621078
H   71.099380   98.900360   84.845482
H   48.750854   47.478794   29.249973
H   27.574722   30.366724   96.847008
H   43.661285   23.888462   34.145699
H   58.129505   17.341938   24.618759
H   27.704348   93.112679   23.753929
H   91.011559   33.457657    8.555656
H   29.864357   26.863123   59.546883
H   24.284594   63.967659   24.247023
H   67.498833   26.628880   10.706931
H   99.295906   26.712959   93.448769
H   23.460835   79.349449   68.048157
H   58.415863   22.366444   92.725929
H   11.480541   97.935074    8.949142
H   87.148956   64.301514   33.939720
H   96.405815   49.335701   54.499672
H   22.076883    1.746309   10.390989
H    8.889895   73.045204   42.036106
H   60.531399   63.252682   89.215637
