100
TIME:    1.382, STEP:  1382
H   23.863169   95.284958   97.880753
H   62.827400   79.675591   65.176384
H    3.510222   73.330788    7.112850
H   81.708572   75.711388   64.412834
H   82.792603   83.530922   28.232597
H    6.585927   99.710869   15.609529
H   80.539223   54.657917   98.526970
H   11.263824    8.163137   81.303581
H   19.655800   53.419754   13.094655
H   37.072639   36.226830   61.809898
H   71.704758   21.850025    6.628595
H    3.091408   92.963387   94.557228
H   55.352356   78.094383   87.769371
H   86.653313    0.816336   62.412098
H   97.310005   46.579891   84.341171
H   45.957428   90.856255   18.322739
H   12.956604   73.390854   99.183632
H   30.677032   27.494171   51.635056
H   66.785606   36.330368   36.171299
H   55.282974   76.465195   10.425577
H   82.266800   18.634613   19.734787
H   94.862907   45.924019    1.579625
H   67.292336   83.382500   92.808731
H   90.638725   53.256657    4.434242
H   80.155998   76.569221   46.758972
H   40.322147   86.429642   59.637001
H   42.907524   85.029373   27.390509
H   15.932808   20.946789   12.453605
H   41.221298   74.477905   91.845055
H   53.985058   56.635483   93.254021
H   70.465706   45.975555    0.053035
H   53.017460   14.330611   71.325417
H   67.705032   67.368584   22.298429
H   36.494560   47.070625   13.530056
H   46.420052   54.451576    8.883575
H   92.713959   93.046829   15.889005
H   12.351140   53.924660   17.361334
H    6.871740   33.659618   19.965801
H   88.590744   51.006371    9.668241
H   33.024765   82.805214   46.767384
H   40.796402    3.603034   74.903854
H    7.414909   73.883858   67.728806
H   23.144812   71.787384    1.297196
H   91.109718   35.932320   15.859008
H   36.777382   77.363113   74.371536
H   60.257793   89.276314   88.783119
H   50.672718    0.290637   39.432320
H   56.313221    9.612391   54.088253
H    5.429494   17.992447   89.345444
H   54.874752   51.784321   87.006065
H   43.439182   36.220726   67.988449
H   72.295647   35.499577   83.336227
H   37.547470   30.022034   22.604836
H   44.687572   84.657173   92.801102
H   30.738922   79.658829   12.133360
H   95.295425   11.079531   45.580261
H   83.864380   49.670052   87.427071
H   23.151096   46.375053   77.958084
H   99.273232   97.160797    5.386047
H   67.819733   34.013165   24.302208
H   46.878613   14.303237    6.644882
H   49.861267   15.081705   32.823662
H   67.974197   12.911201   38.747658
H   37.938690   49.312225   89.618507
H   87.176231   50.466595   24.263819
H   16.446663   73.569771   27.899977
H   76.687973   96.142914   33.786083
H   84.901482   96.574570   32.270191
H   25.780579   50.484619   73.556709
H   58.380836   17.653311   98.823029
H   78.147255    1.369047   45.572514
H   60.013935    5.659294   57.806198
H   16.882736   49.945843   26.311954
H   99.773430   61.925316   21.072227
H   28.804047   30.610121    6.162521
H   58.332943   96.145531    2.939191
H   92.431480    6.764153   15.488014
H   96.909195   60.356422   90.762253
H   27.795458   49.453953   33.098625
H   31.749741   33.687073    1.860731
H   37.926647   43.579082   62.587460
H   45.016155   53.253067   71.215408
H    5.241240   30.322954   61.528538
H   45.239750   30.421122   37.199562
H   85.037170   62.440697   13.782949
H   19.483364   59.819942   37.753639
H   59.455376    2.870270   89.442108
H   78.202637   94.648499   81.377113
H   84.362495   17.224791   16.892853
H   44.151268   52.417511   73.619423
H   80.579659   48.055035   62.647045
H   80.540962   99.446129   59.853127
H   73.955894   69.038803   25.830462
H   80.803535   97.060783   20.000221
H   32.699345   25.938347   47.842949
H    8.069168   41.156853   96.066650
H   52.905533   46.990520   57.709076
H   11.939380   28.004578   33.924667
H   42.876640   42.807552   29.287472
H   25.068283   43.205639   64.579536
