100
TIME:    8.035, STEP:  8035
H   73.947990   85.173454   91.789749
H   78.569687   40.269367   84.737930
H   17.885218   51.973785   29.021046
H   82.825256    1.607506   99.736153
H   23.198538   16.797932   47.842880
H    3.414744   92.503181   74.479591
H   31.856232    3.898433   18.800632
H   88.351135   83.731438   70.447517
H   56.112236   13.760367   94.312164
H   55.295479   31.755693   22.322521
H   52.858902   89.548401   65.776718
H   49.168999   26.443417   20.988834
H   31.384544   75.637482   26.611071
H   57.235909   80.309761   68.708107
H   78.199104   52.307022   64.496368
H   78.453018    8.958525   66.065704
H   77.980080   13.424314    4.846105
H   72.889801    3.856001   20.993645
H   70.410202   15.430425   86.677048
H   76.038223   35.181538   63.392769
H   87.468437   56.308430   39.159824
H   32.703617   54.750565   35.023788
H   78.463371   29.275366    2.458634
H   72.491257   32.950165   10.324431
H   42.206001   48.945206   95.880226
H    9.721691   89.231674   34.752960
H   69.212799    8.470641   59.397999
H   54.571068   31.486334   32.366165
H   85.883949   78.090164   77.353569
H    9.091206   91.972916   22.147873
H   32.282726   42.569534   73.675453
H   73.092125   30.513172   55.423866
H   36.331371   80.603752   21.653212
H   17.599590   37.362831   33.248642
H   80.986656   51.307762   13.907190
H   71.106567   14.764642   94.165382
H   50.459629   10.275690   41.591824
H   31.891499   11.906132   89.449303
H    5.910776    6.349150   65.661140
H    6.386620   59.974358   70.212585
H   86.116547   31.882795   31.645597
H   23.068031   73.112411   90.161430
H   80.436432   11.687414   81.849617
H   66.280365   47.509483   66.354156
H   59.678169   14.873598   43.686920
H   74.406975   16.169285   15.804354
H    4.510849   61.808846    2.592678
H   56.678036   78.127884   65.737816
H   99.903877   66.990425   23.954033
H   94.436768   53.031277   21.724865
H   42.949871   93.915764   38.127823
H   95.629120   18.150118   46.589233
H   75.540764   68.598389   36.211678
H   90.621002   76.107727   86.379227
H    1.035785   62.754883   68.689041
H    3.603342    4.081683   19.096436
H    5.636933   57.699944   20.182945
H   27.752829   18.080729    6.591157
H   23.977604   78.276161   94.639023
H   28.791832   45.385540   35.076073
H   66.554581    4.907602   87.924324
H   13.740089   53.153427   31.795628
H   19.556297   58.989166   82.486389
H   94.788567   85.533096    8.987306
H   51.246971   19.101885   43.833801
H    7.745922   42.829613   21.276264
H   42.905731   26.153732   54.992229
H   25.333504   77.067375   50.322067
H   57.366936   72.442482   56.292732
H   93.211418   52.220371   84.801498
H   66.884987   48.701096   65.767494
H   11.605033   84.806053   45.008068
H   83.093842   20.868505   55.734531
H   53.324421   40.884441   25.740789
H   49.524826   40.146313   10.520712
H   15.607806   22.540543   55.274895
H   96.531944   30.350861   33.242928
H    9.478244   25.334118   58.184032
H   46.819710   29.917393    7.326893
H    5.481761   71.314842   28.698677
H   68.113548   12.408120   60.223892
H   44.236092   96.578735   14.796421
H   26.105810   41.491734   95.155334
H    2.945016   99.731201   29.544193
H   61.092590   46.282581   68.849892
H   66.369125    4.191981   99.757843
H    3.794285   19.142525    6.683133
H   85.253929   62.106506   12.267525
H   22.433792   46.795967   62.474861
H   55.937565   78.694962   11.449650
H   52.848011    7.298997    3.146409
H   72.807533   99.788605   86.625923
H    0.512611   68.609886   40.363464
H   23.817869    0.647052   68.586494
H   17.671085   30.003281    0.723082
H   57.579651   78.438843   52.430779
H   24.821688   28.790901   75.088387
H   22.767908   84.031105   17.578466
H   25.943993   71.499275   72.022575
H   38.295696   72.440628   23.702908
