100
TIME:    1.897, STEP:  1897
H   89.036285   48.056717   97.409256
H   48.501762    7.596713   97.662498
H   12.362562   10.382033    1.066659
H   81.795013   54.494041   36.182034
H   78.179794   24.810429   14.269501
H   98.599983   99.152931   66.612846
H   53.547565   89.431847   38.800728
H   70.785835   52.715809   34.017838
H    6.996117    3.904515   80.678078
H   22.999723   43.621468   81.974663
H   23.800705   42.572300   57.020130
H   83.437271   18.777224   57.898369
H   22.594566   46.936317   36.582664
H   61.153206   99.228767    1.601634
H    3.574018    0.579877   59.586899
H   25.250870   45.811028   75.573990
H   71.551498    7.448647   46.071404
H   41.682549    2.449406   33.781052
H   74.808907   57.936699   63.301998
H   41.409187   65.526474   45.489204
H   51.705963   67.365845    5.756878
H   44.244633   46.603760   57.729759
H   60.416344   79.194038   78.074463
H   42.789680   59.433262   66.187637
H   61.736198   35.724625   50.558449
H   37.960735   71.082428   11.366792
H   98.498009   63.623356   37.610195
H   72.477890   44.985256   29.476595
H   52.419342   21.202642   67.500114
H   73.732903   43.889359   34.194180
H   90.724342   92.158646   59.300472
H   85.535004    0.102489   23.649254
H    3.979155   29.688271   68.693695
H   58.254128   99.874130   91.834106
H   33.618919   15.521663   40.242027
H   37.491802   33.503010   14.118466
H   61.745117   35.064796   57.941471
H   85.584633   24.233616   56.306400
H   65.440262   40.012642   60.309471
H   84.517021   34.592289   87.286331
H    5.603111   21.274210   87.037033
H   61.129639   96.995049   91.924438
H   27.580809   74.875687   38.495667
H   58.222832   44.564636   66.211716
H   92.104927   57.042957   18.441576
H   53.613621   99.099159   90.873421
H   56.110645   28.073153   43.832954
H   56.340725   14.914762   85.953560
H   20.482107   75.339317   68.803909
H   65.675346   59.622952   50.985149
H   43.399891   86.500160   73.418518
H   97.324257   87.711716   49.528240
H   48.230797   33.008179   92.694725
H   32.762638   76.256676   15.525930
H   89.739700   24.805784   16.503431
H   95.939804   10.538292   28.048447
H   16.514009   34.810051   36.408012
H   84.802582   97.739014   64.693314
H   39.888832   18.921392   65.850784
H   33.836178   73.598282    9.654807
H   79.364731   90.352974   66.489586
H   31.582962   10.287174    9.520217
H    2.904463   77.791954    3.416502
H   73.303833   52.113701   75.638634
H    7.616472    9.333371   72.225815
H   84.809639   47.967506   58.350796
H   35.369156   13.947671   58.649670
H   49.327065   26.029022   56.890171
H   51.449638   13.479996   41.256424
H   68.814514   43.557030   97.738586
H   61.794182   66.328911   39.395908
H   17.551069   88.567215   95.510857
H   83.303421   24.473240   13.106121
H   88.441795   29.333277   90.464211
H   53.632523   31.342905   45.203716
H   70.507240   29.152140   68.284416
H   39.190239   62.128723   24.598093
H   21.104839   26.680090   19.203556
H   52.482231   47.945164   38.843025
H    6.492900    5.638803   57.492928
H   48.004887   48.906994   93.368324
H   83.657227   56.616409   28.151876
H   37.825993   38.919525   10.579702
H   80.666939   74.490334   90.159912
H   59.961411   30.225693   63.859573
H    7.629170   78.735680   73.516655
H   93.851051   65.425568   13.999659
H   86.493118   53.416122   76.022072
H   95.049751   88.550606   12.679626
H   98.617661   31.227669   92.031364
H    1.655585   75.863220   73.522903
H   18.646074   38.177959   69.666451
H    6.999554   84.472458   65.672226
H   30.580013   28.299311   54.722694
H   23.794106   79.808136   59.677513
H   50.606018   20.820715   69.466385
H   12.027644   76.545494   28.091232
H   13.830277   32.389496   25.683758
H   18.344196   45.027515   86.148117
H   57.051468   29.976532   14.977442
