100
TIME:    3.226, STEP:  3226
H   99.161530   26.180595   96.192520
H   11.532965   79.653976   81.495132
H   35.206779    5.995753   85.471657
H   82.018082   99.737968   63.336758
H   66.276062   31.335629   78.234848
H   77.996590   97.713127   98.227104
H   83.895348   79.172997   42.730339
H   66.329056   67.690994   11.992779
H   74.326698   76.126602   97.021187
H   86.683372   62.703941   34.016861
H    0.180375   96.047836   29.005156
H   32.713409   85.393509   63.298790
H   38.056541   66.529877    4.491242
H   95.348686   95.132423    2.739156
H   19.741066   81.868149   95.700844
H   71.813843   29.571442   65.255226
H   64.691414   95.346191   67.063858
H   70.081017   37.820381   87.703796
H   95.513695   13.686900   33.320332
H    5.606735   37.307796   35.973686
H   72.841309   35.059029   69.681488
H   71.660110   48.366547   44.554565
H   42.672279   68.385368   40.051468
H   19.311188   75.372498   67.483833
H   14.204188   30.321419   60.364540
H   31.866804   31.485937   86.798134
H   83.897507    8.375228   63.982944
H   60.340443    7.018463   73.407585
H   81.316818   41.779678    4.678127
H   24.692150   10.996547   39.845947
H   43.018948   11.337541   54.148094
H   69.448830   63.377548    0.617101
H   97.592010   32.452248   88.420509
H   14.407146   78.079140   35.843979
H    0.580673   15.059424   21.169624
H   53.042538   37.904110    9.550637
H   89.214394   86.392075   62.661495
H   30.655167   99.909462   50.090534
H    8.900941   11.128656   31.688475
H   59.339474   10.175591   91.849159
H   14.777647   66.873215   18.348860
H   41.686668   56.644501   54.361191
H   39.028263   82.845306   34.491207
H   73.357300   66.839752   96.155357
H   76.823433    4.611231   32.168880
H   36.467785   24.447803   96.267616
H   66.937790    0.277878   56.429283
H   56.411701   28.597971   68.184532
H   59.326401   65.271111   15.787101
H   93.538597   79.843239   58.032665
H   43.298496   58.194122   87.431259
H   61.910145   64.391510   62.282413
H   75.795662   40.714172   15.507828
H    1.989361   54.574089   74.171173
H   83.934097   41.302696   27.786058
H   97.602676    9.141317   82.806152
H    0.767180   96.461601   62.806892
H   85.841789   72.231659   30.462250
H   44.703995   75.074936   63.822697
H   46.135414   75.749603   71.855476
H   63.199287   28.548611   62.870243
H   84.417564   97.914932   49.389351
H   93.073326   87.146416   12.253983
H   64.564445   59.343140   39.555546
H   60.369778    3.188190   95.992058
H    3.166994   81.898872   36.930099
H   28.740879   59.891468   22.813890
H   57.523903    2.034968   20.424055
H   17.684761   17.986534   57.904720
H   95.744934   10.400520   94.940094
H   19.592236   75.902596   23.450729
H    7.969166   44.460541   92.814240
H   96.649765   58.733532   79.033684
H   59.197910   45.232155   11.477776
H   17.710428   33.237225   45.950962
H    1.919811   14.328596   78.860138
H   59.855709   46.938820   48.102970
H   83.543671   39.780399   92.599197
H   16.212080   44.042950   53.675613
H   41.316292   33.258572   42.998367
H   74.008713   62.656109   72.799332
H   83.374832   65.295792   17.021387
H   21.907774   61.104675   37.160374
H   72.092911   88.214569   68.770752
H   95.249344   47.097057   35.027824
H   77.046326   27.549969   65.806427
H   82.611961   68.796440   77.371399
H    7.885523   47.012939   62.193169
H   22.632175   14.553934    1.806869
H   81.117065   76.549881   39.539185
H   56.043823   47.625782    1.588974
H   16.983690   38.119011   94.994835
H   92.247559   24.312742   68.475975
H   59.033794    8.912968   44.330925
H    0.813388   60.765163   90.217583
H   60.375961   68.340096    0.821644
H    6.537938   52.814053   51.659508
H   18.708487   43.705139    4.417610
H   55.034203   50.756313   74.826012
H   39.589802   95.850410   86.968857
