100
TIME:    6.353, STEP:  6353
H   87.695145   39.419640   93.329666
H   25.020596   49.124607   78.683083
H   88.967941   30.963699   48.769512
H   82.542938   70.906586   91.932983
H   38.267807   81.978394   93.450089
H   29.501957   94.325417    7.904792
H   20.009918   90.322258   87.265953
H   20.553024   38.216908   24.882252
H   97.459007   75.478302    0.187390
H    1.236501    7.603572   56.463383
H    9.314438   21.869055   27.796715
H   13.363480   42.133564   40.715157
H   38.668716   77.411812   93.755547
H   40.517876   85.494148   40.706608
H   57.769539    2.551552   45.386295
H   46.083939   56.072426    5.686227
H   13.236728    2.173324   51.726997
H   36.923077   85.702194   79.296913
H   44.215641   44.870453   98.063980
H   21.357071   70.897255   48.874382
H   87.280701   23.755947   84.811378
H   71.448639   52.517685   78.261658
H    0.920585   42.953682   50.584076
H   28.772331   12.828585   35.244205
H    2.365280   82.335297   83.458229
H   17.585764   38.849205   93.009850
H   14.252228   78.391251   26.020300
H   96.494522   52.976265   76.770462
H   49.310921   25.485699   56.862183
H   44.594852   33.603233   88.434189
H   66.088066   91.741554    6.749809
H   66.889557   76.983749   11.134987
H   17.853561    3.667063   70.125366
H   46.531548   91.508255    4.110174
H   22.847672   78.658821   11.571872
H   24.892900   83.022758   99.452431
H   89.134377   71.874634    9.056846
H    1.412645   42.691212   70.754173
H   76.911041   42.994682   28.659090
H   64.810867   17.436474   37.875195
H    1.069624   74.168480   92.019630
H   64.817734   66.516434    4.292315
H   65.961212    1.597575   60.356880
H   73.682312   19.277670    1.898910
H    5.580444   81.234573   99.753159
H   96.119804   84.090591    8.970972
H   91.367477   70.335648   86.447548
H   56.578701   60.803818   61.665562
H   50.732658    6.295215   91.049973
H   59.123112   27.429010   39.330124
H   43.065365   56.302475   20.397312
H   13.877937   74.229034   57.001289
H   40.653057   58.845581   33.896122
H   29.571152    3.545173   12.156943
H   34.960075   15.351220   54.384853
H    1.508413    5.850984   76.355682
H   99.005440    6.233340   60.210625
H   52.997955   76.924950   49.917221
H   91.324814    7.199132   23.762978
H   39.785973   16.100330   82.916161
H   60.452839   83.127457   19.066555
H   73.437538   68.809250    7.899739
H    5.365135   73.765663   97.826172
H   79.289352   76.370590   54.658184
H   84.484604   53.441326   87.195961
H   11.072186   26.446495   21.822783
H   77.855240   67.999756   73.784866
H   41.520683   80.871864   69.912735
H   73.535835   93.300278   61.785038
H   59.093117   67.681084   88.355530
H   20.296116   63.143036   85.940407
H   50.132710   40.681381   21.758347
H   92.763275    4.062294   98.854797
H   90.355721   47.337360   25.679476
H   68.473137   37.698505   82.998306
H   75.848259   14.740059   68.451996
H   43.771084   75.932884    3.412937
H   30.455822   35.313004   65.293785
H   66.160652   34.857960   88.561775
H   87.968277   62.941719   73.604576
H   35.190887   95.006363   59.692860
H   18.021368   85.670990   55.511784
H   19.716011   13.362885   34.971153
H   87.225746   55.799217   83.168602
H   42.991219   51.502251   31.900192
H    5.073848   42.410721   82.954727
H   91.457222   41.437935   26.479025
H   58.202721   96.700012   29.707085
H   87.525253   40.446907   76.231453
H    4.647668   47.897449   51.320229
H   84.013573   16.475979   67.625534
H   48.356564   73.285736   54.573761
H   92.693130   18.140278   10.291820
H   61.259228   98.602364   55.172012
H   46.753014   80.666763   62.071232
H   18.653381   44.858124   39.308350
H   58.330986   32.265152   71.822433
H   26.014566    0.806049   51.343887
H    6.070885   64.236000   12.906288
H   33.820271   15.607025   85.735847
