100
TIME:    9.234, STEP:  9234
H   92.864655   75.219856   90.692032
H   45.455215    5.239913   60.339512
H   38.494862   38.234398   14.947224
H   83.026505   52.210075   34.015305
H   12.454630   12.902876   15.334452
H   84.825439   91.204216   93.219727
H   69.014671   84.861870   12.564007
H   94.112106   87.460373   60.359474
H   26.638527   98.480392   18.839426
H   22.545591   48.971561   69.269173
H   41.330841   37.790955   50.282310
H    3.403336   86.543434   35.642342
H   54.928146    3.067348    7.458345
H   97.869553   76.614113   59.952694
H   92.762154   45.206429    6.838668
H   30.244766    4.089484   66.538147
H   81.563606   92.728630   13.995802
H   98.529800   45.512413   79.429764
H   89.089691   65.733002   49.843571
H   43.734486    9.719641   45.026237
H   16.318062   36.943634    6.617623
H   47.652920   56.342255   32.917862
H   62.454994   19.528551   68.154800
H   61.087040   47.293671   21.276724
H   99.324448   53.858902    4.732894
H    4.066753   53.885178   21.921129
H   65.821861   58.632267   83.183640
H   53.402939   87.451614   72.001060
H   11.955514   86.872917   20.675682
H   55.065331   62.297958   17.465092
H   79.472420   50.085949   78.814407
H   48.797657   97.388000   44.426430
H   20.787231   92.879425   29.668600
H   68.260544   27.481598   82.738106
H   51.147041   60.526619   86.856720
H   75.333420    8.678758   90.396553
H   65.458832   66.365974   36.068317
H   82.333214   89.966255   74.058205
H   55.303532   80.224571   49.469009
H   93.453995   47.727531   64.547745
H    4.173452   73.021759   59.893520
H   22.022797   77.814301   51.372059
H   90.754974   18.880665   68.453178
H   89.725258   67.641762   83.585396
H   55.674042   67.577415   46.291225
H   58.932159   39.035229   20.675474
H   13.884713   27.015177   14.107121
H   56.751217   90.477203   39.924747
H   34.948776   67.689430   76.127136
H   19.605406   71.284477   37.891491
H   42.867542   78.160210   50.769867
H   53.901653    6.891987   67.881416
H    0.404165   75.550598   66.577713
H   62.849136   56.546577   39.286446
H    5.569694   67.829346   78.879517
H    5.096695    2.820452   78.279633
H   81.647141   23.103554   34.217781
H   38.472839    4.849468   75.708153
H   18.544731   28.938601    2.590788
H   49.669239   37.544399    0.973664
H   42.189991   49.146603   94.442741
H   71.185204   41.993301   77.546776
H    0.956392   77.171288    0.267364
H   77.122803   92.064514   76.437820
H   98.835464   23.338978   55.491001
H   34.089546   83.224174   92.170509
H   46.707657   67.603149   12.879421
H   42.510300   45.640144    7.641205
H   17.122492   86.289993   81.092712
H   17.562729   12.445248   82.258453
H   28.804420   67.118385   51.387398
H   12.870074   44.995506   32.894566
H    4.917797   61.557316   24.989300
H   26.933468   64.998695   54.500465
H    7.282483   41.911808    1.429829
H   43.956322   99.385124   74.597488
H    5.426758   26.574093   54.511200
H   65.802147   46.938805   24.408936
H    4.318508   26.395550   20.708414
H   46.680992    5.999158   25.403770
H   91.586403   24.812326   31.887016
H   34.208160    4.358713   14.487825
H    1.944129   61.543369    9.341939
H   85.433311    2.332310   20.034489
H    2.712326   71.277084   52.620880
H   38.771465   48.235001   83.020111
H   83.872826   31.965141   63.855934
H    4.536803   66.161903   99.835938
H   47.317142   80.038139   52.668587
H   49.929676   29.364441   54.308311
H    1.916046   72.038315   28.467308
H   61.521389   89.964783    9.473252
H   77.370758    4.579535   33.083977
H   39.695427   73.389023   49.431988
H   96.939041   22.603939   28.272478
H   56.612137   31.090727   90.500641
H   29.650528   97.599266    6.132057
H   20.453554   43.358379   93.505211
H   68.826591   76.676842   71.593925
H   12.771484   41.674595    8.198904
