100
TIME:    6.825, STEP:  6825
H   55.775223   96.135811   92.897537
H   11.986507   74.701530    8.442958
H   97.084763   64.921776   43.227459
H   82.622162   51.460785   66.062866
H   34.040146   19.811186   80.651871
H   22.180973   93.814064   54.649410
H   95.272430   22.193928   24.177042
H   83.454750   79.050812   81.545189
H   85.856346   30.097565   70.478508
H   88.344490   14.381668   74.944099
H   65.410156   40.861118   82.330666
H   95.348267   65.792618    7.118457
H    8.549332   48.867786   46.855156
H   17.148048   84.039314   76.626060
H   63.502449   60.390190   22.688725
H   27.105812   14.789684   66.506348
H   75.281166   33.391422   94.695015
H   47.016888   62.734543   62.933868
H   51.565434   64.672638   22.929790
H    8.641678   60.872990   81.010368
H   59.271545   76.767365   71.998756
H   16.699738   53.144272   38.066467
H   94.618614   39.114937   37.080048
H   84.917244   18.475069    0.189072
H   85.483589   44.903893   86.944069
H   15.426800   24.899212   48.620438
H   73.552238   58.771637   35.386692
H   56.667305   75.007637   92.370316
H   59.573982   68.309395   34.549927
H   62.693851   21.921349   25.956215
H   84.662407   34.066772   69.406731
H   96.692047   63.940678   67.439629
H   51.101513   69.132912   12.646855
H   66.474297   48.252151   84.225357
H   11.100592   42.921761   40.290298
H   65.923225   19.992046   97.968788
H   34.405540   54.589478   46.248569
H   81.902214   34.052235    4.063727
H   56.988628   32.710014   82.919312
H   20.355068   73.250259   75.012009
H   68.811249   90.366112    3.139541
H   25.040268   68.367386   28.388832
H   70.023224    4.429094   94.451469
H   43.543766   27.200033   48.047623
H   64.636482   62.610088   40.144230
H   90.026787   93.093277   10.888544
H   95.054977   96.004105   90.977699
H   56.604183   65.665268   90.870270
H   64.528511   67.202492   72.223557
H   69.031494   34.614300    6.327439
H   43.032955   10.733641   25.372196
H   36.821720   30.430008   26.017647
H   50.444378   61.582397    6.482821
H   18.641891   95.844818   32.983841
H   97.377823   56.716049   58.400051
H    2.096288    5.354486   60.287689
H   28.927362   92.613731    5.101702
H   17.852198   32.350853   37.759995
H   28.550339   27.145084   87.528648
H    8.640068   52.381153   69.491356
H   90.226524   61.175774   82.265060
H   56.685341   64.415939   86.544235
H   37.409634   41.557655   65.459717
H   11.699780   78.941757   41.841961
H    3.217776   15.742458   31.151945
H   82.076996    2.982395   49.731110
H   39.986343   84.319824   96.572464
H    8.916361    7.865942   92.477066
H   97.058052   59.385361   32.180607
H   68.655724   91.419365   87.361633
H    5.307206   31.028656   80.279518
H   11.222369   25.012527   56.320763
H   61.988495   80.715042   86.755188
H   79.963020   17.465572   97.635834
H   91.231926   38.371906   18.779427
H   87.004387   44.991657   36.693619
H   86.638275   35.079746   11.783880
H   52.631237    4.449752   91.358360
H   88.797005   33.471546   93.826546
H   64.820572   37.230049   32.941246
H   44.427643   99.889420   87.903671
H   53.438644   88.731903   16.025276
H   49.572517   21.256140   79.922089
H   19.699135   96.188866   40.058544
H   20.008451   21.977043   86.145241
H   94.211533   59.749893   15.732110
H   22.981112    7.119476   48.985741
H   65.793785   58.931461   24.813225
H   97.320175   14.167427   72.371101
H   62.918041   28.476856   68.192154
H    3.329783   41.961876   77.593307
H   83.279785    8.784810   63.565643
H   22.948994   32.303303   46.792305
H    6.877076   27.237635   86.998306
H   38.592979   38.387970   72.917664
H   57.638611   26.219522   14.929037
H   20.865946   59.352432   44.677536
H   25.103495   24.160702   41.869461
H   83.585899   66.274208   73.372536
H   63.136616    3.494980   40.266804
