100
TIME:    7.052, STEP:  7052
H   40.423904   75.318703   92.689713
H    5.717916   87.001289   22.756020
H    0.988016   81.253334   40.562107
H   82.660263   42.108673   53.619648
H   32.006927   38.006237   74.496796
H   18.660076   93.568138   77.129837
H   83.374466   37.522732   41.928738
H   65.612999   98.690247   60.703560
H   80.276253    8.272353   56.189610
H   82.144386   17.641268   83.832069
H   44.295166   49.995014   60.464325
H   86.685440   77.171021   90.960396
H   94.066994   35.136127   24.298435
H    5.908672   83.339638   93.899757
H   66.259590   40.113426   11.772732
H   17.977978   94.935181   47.663574
H   57.027229   48.405025   15.359735
H   51.871326   51.688660   55.065971
H   55.100185   74.194473   34.888371
H    2.526436   56.053188   96.465599
H   45.801041   54.169136   65.836754
H   38.462448   53.445618   18.735306
H   91.587837   37.268761   30.585337
H   63.826485   21.190645   83.331009
H   77.364571   26.901077   88.620522
H   14.356503   18.208122   27.257982
H   53.977726   49.334663   39.891293
H   37.514526   85.603233   99.872787
H   64.509819   88.904823   23.819906
H   71.398239   16.303154   44.002037
H   93.595406   54.421471   51.447212
H   11.024805   57.669567   46.425087
H   67.091560   52.524254   33.096809
H   76.065407   27.448898   74.661957
H    5.450888   25.734657   54.101982
H   85.656181   37.772034   97.255257
H   56.176910   46.276489   64.135345
H   72.518929   29.897472   20.081871
H   47.406178   27.764528   60.921066
H   98.974220   51.999203   92.871078
H   53.297134   98.156075    8.487148
H    5.909775   69.257568   39.977062
H   71.976776    5.790779   10.847980
H   29.049725   31.010153   70.242058
H   44.946770   53.654575   59.568916
H   87.096458   97.422958   11.810766
H   96.828415    8.349362   93.156395
H   56.618038   68.003296    4.915636
H   71.165047   48.402721   63.169167
H   73.797607   38.069386   90.456123
H   43.017368   88.818161   27.764778
H   47.855480    9.365242   11.116757
H   55.153339   62.898621   93.299355
H   13.385658   92.142075   43.000992
H   79.304001   76.608971   60.331089
H    2.379017    5.115704   52.560074
H   43.317493   86.063789   26.691444
H    0.949605   10.912882   31.913179
H   46.452705   36.737926   70.102547
H   93.660118   69.829193   63.034935
H    4.545786   50.620010   64.565323
H   48.628670   62.303055   76.274231
H   52.821568   26.067455   49.893646
H   27.287498   80.178314   35.678226
H   12.227958   97.612366   52.291218
H   68.131958   91.697624   63.153122
H   21.773485   92.168671    7.532238
H   93.235741   20.848921    3.328979
H    8.371721   43.074585   17.942883
H   73.255577    2.836143   86.883636
H   98.098717   15.583804   77.557014
H   92.541634   17.458965   72.957130
H   47.187912   69.489044   80.936096
H   74.964836    3.098897   84.148010
H    2.174114   38.698872   35.988987
H   92.369728   59.541119   21.419634
H    7.254712   15.431652   15.809618
H   63.296108   89.607307    3.894088
H   99.683556   32.804775   96.358543
H   53.688095   24.863979   13.384999
H   48.869896    2.238354    1.471109
H   70.472267   90.203995   97.034370
H   63.931473   25.052404    1.539417
H   35.316113   15.613901   19.326298
H    8.955641    7.777169   64.140068
H   88.988205   68.088013   31.495621
H   38.141926   90.614616   59.809944
H   69.444572   40.765850   22.459610
H    2.031147    1.528675   70.514534
H   42.847370   19.136868   76.307709
H   12.619648   54.218338   82.387131
H    0.075485   25.856926   67.891685
H   37.500187   39.114758   64.346565
H   28.815403   41.009483    2.304562
H   34.668556   18.054054   78.134064
H   76.387863   17.256216    3.203827
H    2.848093   72.379578   31.622654
H   24.665331   35.392498   37.312904
H   72.772087   67.254448   54.359158
H   77.237419   97.669601   18.398449
