100
TIME:    6.640, STEP:  6640
H   68.286209   13.100939   93.066910
H   17.095207   64.677498   96.778236
H   93.903381   51.611916   45.399662
H   82.591110   59.082550   76.202637
H   35.697174    4.982654   85.668121
H   25.050426   94.014488   36.327534
H    4.968558    9.701468    9.709803
H   97.995384   63.045193   98.530434
H   90.403999   47.884506   82.122871
H   93.397438   11.724989   67.700600
H   82.618408   33.417194    0.151477
H    2.408750   56.519474   20.286480
H   20.354599   60.056255   65.237724
H   26.307575   84.609535   62.548229
H   61.255440   76.915306   31.585018
H   34.544556   30.970436   81.862793
H   90.157722   21.155666   77.853737
H   43.060627   71.736694   69.347206
H   48.684689   56.911263   13.183810
H   13.625465   64.801308   68.414696
H   70.249710   95.183807   77.020653
H   98.963608   52.898682   53.820938
H   97.088631   40.619530   42.372940
H    2.105837   16.261934   13.928972
H   92.100410   59.575790   85.577797
H   16.277456   30.364365   66.020393
H   89.504311   66.462112   31.715544
H   72.277145   66.372459   86.255966
H   55.551384   51.524578   43.295197
H   55.599964   26.500053   11.249737
H   77.382210   17.477524   84.043343
H   85.010986   69.052887   84.566017
H   38.069706   82.668602   95.980591
H   58.657753   65.206345   92.019318
H   15.705055   56.928871   29.034082
H   49.841305    5.501745   98.550301
H   16.661743   61.364380   31.671240
H   89.549385   37.438274   91.008308
H   64.797974   36.741081    0.847368
H   37.779743   90.568604   60.456913
H   81.454910   84.017464   98.781227
H   40.631012   67.641907   18.944195
H   68.431122    3.319297   81.087975
H   55.356091   24.094870   29.959967
H   80.684532   69.909775   24.313200
H   92.414940   89.564682   10.136953
H   93.609665   85.943375   89.202110
H   56.594028   63.759827   79.423508
H   59.121155   82.525063   79.602554
H   65.147217   31.798429   19.262804
H   43.045658   28.594683   23.422295
H   27.829121   47.597328   38.161659
H   46.606678   60.509705   17.227392
H   22.925606   98.862473   24.820705
H   12.108078   40.502861   56.826298
H    1.865871    5.549088   66.585526
H   17.199724   97.951790   87.506630
H   31.627127   49.821632   42.525009
H   13.960256   19.327129    1.730568
H   20.847809   38.160915   74.753197
H   78.556755   69.779434   96.689957
H   63.251350   66.137894   94.914062
H   24.849649   54.181557   78.145721
H   98.996078   77.933990   46.865269
H   95.875092   30.518097   13.923228
H   93.441895   12.178972   38.792465
H   54.829025   77.923187   87.640884
H   21.695717   97.285378   83.632996
H   87.838539   72.678284   43.784039
H   64.906944   82.115166   87.751190
H   11.182045   43.615860   82.498299
H   26.469053   31.156464   42.771751
H   74.050644   89.865326   91.497620
H   84.036430   29.174156    8.627684
H   82.311638   38.107967    4.754714
H   82.631752   33.134167   49.141090
H   69.836517   51.092510    8.502993
H   43.939602   16.546534   81.142372
H   79.924706   34.014950   91.763023
H   73.893295   47.307716   48.879204
H   40.807304   97.975510   76.846466
H   39.557152   87.532181   31.502399
H   37.870285   18.162268   62.304382
H    6.971494   80.358177   56.954868
H   29.016726   33.549423    4.078909
H   98.468430   52.953819    2.884856
H   10.625383   20.570702   40.164253
H   62.818474   73.735107   26.731369
H   93.481064   24.467459   73.884163
H   79.273880   36.088741   61.578674
H   95.758781   31.973129   73.686447
H   69.591660   94.871170   60.041283
H   11.090238   26.752117   32.485970
H   88.997322   16.013880   74.524017
H   41.791298   54.959663   68.666412
H   42.358383   33.524567   24.484512
H   35.550011   48.735596   55.316956
H   25.460588   15.006822   45.582954
H   92.398918   65.475334   88.867302
H   51.646099    8.242184   58.089031
