100
TIME:    6.733, STEP:  6733
H   61.996902    4.572557   92.981766
H   14.527050   69.716606    2.641999
H   95.502670   58.302818   44.307690
H   82.606720   55.251068   71.105347
H   34.864182   12.436979   83.146439
H   23.607944   93.913734   45.537991
H    0.094507   15.981373   16.982523
H   90.685768   71.091217   89.991905
H   88.117882   38.942963   76.269218
H   90.857307   13.060509   71.341927
H   73.967773   37.159275   91.192909
H   98.859192   61.181110   13.666885
H   14.420059   54.431782   55.996758
H   21.703056   84.322884   69.625267
H   62.385017   68.608086   27.112827
H   30.805199   22.836342   74.143066
H   82.679237   27.306614   86.319893
H   45.049450   67.211288   66.123085
H   50.132847   60.812988   18.083141
H   11.120102   62.826389   74.746574
H   64.730957   85.925812   74.496132
H    7.879608   53.022141   45.901123
H   95.846947   39.863167   39.712189
H   93.465034   17.374483    7.021852
H   88.774117   52.200188   86.264626
H   15.853510   27.614922   57.275230
H   81.485161   62.596313   33.561039
H   64.429703   70.713387   89.329666
H   57.573555   59.962353   38.898926
H   59.166080   24.198326   18.642723
H   81.041985   25.817028   76.685478
H   90.883087   66.482956   75.956535
H   44.620831   75.864174    4.358769
H   62.587151   56.683426   88.101273
H   13.390379   49.887459   34.692612
H   57.925732   12.786025   98.257973
H   25.581646   57.958618   38.999302
H   85.705132   35.736103   97.571495
H   60.872265   34.714653   91.834900
H   29.020428   81.862625   67.773972
H   75.098907   87.208946    0.972202
H   32.793503   68.006607   23.692039
H   69.231476    3.877212   87.805840
H   49.418003   25.655844   39.052719
H   72.617134   66.240067   32.271671
H   91.214409   91.338516   10.514780
H   94.336227   91.000931   90.094704
H   56.598995   64.717697   85.177826
H   61.839378   74.822365   75.893112
H   67.099854   33.214001   12.760194
H   43.039272   19.615889   24.402515
H   32.349888   38.967270   32.056831
H   48.535900   61.048950   11.826067
H   20.772171   97.345490   28.924294
H    4.703069   48.653275   57.617428
H    1.981703    5.451261   63.419586
H   23.095240   95.268333   96.351677
H   24.702433   41.039024   40.129623
H   21.294754   23.257236   94.591209
H   14.711014   45.309467   72.108055
H   84.423180   65.454117   89.438522
H   59.950600   65.272263   90.706528
H   31.163435   47.835487   71.768433
H    5.382253   78.440598   44.340038
H   99.566086   23.090343   22.584150
H   87.728729    7.555828   44.291351
H   47.367569   81.138794   92.130814
H   15.271578    2.604192   88.078934
H   92.473213   65.995895   37.950962
H   66.791466   86.792412   87.555359
H    8.228788   37.288239   81.382912
H   18.800768   28.069992   49.581146
H   67.986969   85.264786   89.113586
H   81.988716   23.288219    3.102111
H   86.795891   38.240650   11.804955
H   84.829887   39.094959   42.883713
H   78.282806   43.042850   10.152304
H   48.308910   10.465475   86.277977
H   84.384834   33.741779   92.800362
H   69.332413   42.241646   40.867149
H   42.627258   98.937637   82.404953
H   46.535416   88.135284   23.722008
H   43.753029   19.717566   71.160919
H   13.369714   88.316307   48.461040
H   24.488127   27.731956   95.063637
H   96.328476   56.370224    9.343202
H   16.836641   13.808787   44.598839
H   64.314171   66.293518   25.767113
H   95.410995   19.289637   73.123543
H   71.051804   32.262226   64.903030
H   99.564720   36.994499   75.650436
H   76.472717    1.865690   61.812988
H   17.051594   29.542713   39.677803
H   97.985695   21.656092   80.794876
H   40.183495   46.629028   70.803528
H   50.039795   29.852228   19.680969
H   28.168207   54.072708   49.968491
H   25.281076   19.608501   43.716171
H   87.968590   65.876930   81.078041
H   57.422413    5.855747   49.129749
