100
TIME:    8.800, STEP:  8800
H   22.213924   15.019569   91.089371
H   57.441605   81.723434   32.972797
H   31.034822    7.011508   20.041611
H   82.953659   70.090324   57.805969
H   16.343584   78.116058   27.100697
H   91.553711   91.674400   50.239845
H   91.762321   55.557175   78.624626
H   28.223648   49.913090    0.206261
H   37.307076   40.208618   46.158985
H   34.400856   42.739964   52.276314
H   81.700470   20.329018   92.088982
H   19.969055   64.789131   66.535439
H   82.602798   29.335167   50.587105
H   19.358084   77.951820   26.923901
H   87.490791   83.973457   27.708916
H   47.694733   42.048851    2.563620
H   16.463509   64.020897   74.487068
H   89.245316   66.630974   94.475662
H   82.328308   47.525265   26.980030
H   55.426182   18.936247   15.477472
H   42.072243   80.149689   18.397528
H    6.044915   55.766113   69.876999
H   68.249519   23.056589   80.571640
H    1.410622   42.101776   53.510288
H   14.846320   88.276047    1.529205
H    6.113876   66.679489   62.763844
H    3.244714   76.672440   74.574631
H   90.023376   67.193954   57.655663
H    2.518096   47.496639   41.190697
H   38.423454   73.039352   82.963593
H   62.393162   11.169136   13.151085
H   21.394520    9.378796   84.604012
H   90.216812   24.632229   90.570450
H   49.923355   67.255219    1.022237
H   61.948036   93.386543   60.453106
H   37.606098   74.685974   91.760750
H   23.833836   82.259529    1.871017
H    0.273023   97.906410   43.432220
H   73.622429   89.681236   91.527328
H   34.332039   88.356758   30.399912
H   33.833298   58.129478   49.668667
H   58.597839   76.112366   29.216896
H   87.019989   16.276440   37.105984
H   17.435017   60.355560   41.151386
H   93.321167   84.696098    9.150842
H   64.531639   30.757584   18.912283
H   10.491605    3.411587    9.939201
H   56.724728   86.007141   13.071352
H   22.263733    3.635038   93.437866
H   10.495913   64.675407   68.237785
H   42.897343   20.060387   46.193848
H   32.809582   47.164570   96.370613
H   91.404335   73.034119   91.782242
H   72.901428   63.629143   20.135738
H   40.126167   29.794516   75.190887
H    4.556149    3.276978   93.054016
H   54.132614   35.626350   92.940590
H   70.789734   45.836037   86.886620
H   84.314812   10.599755   35.909500
H   78.309090    4.184539   13.317650
H   14.811108   69.328979   28.278927
H   86.588707   46.032913   97.181938
H   71.493652    6.786477   30.028046
H   47.320538   89.700348   88.218918
H   81.610825   58.003483   15.074343
H   60.750984    4.799495   66.509041
H   81.527786   52.599499   91.925522
H   72.489517   20.818966   86.893494
H   95.491882   17.474449    8.311209
H    8.748427   90.646011   83.178955
H   42.588383   96.647285   56.592537
H   48.608208   59.405663    1.082982
H   33.215225   83.026482   36.118099
H   36.486156   92.468056   80.287758
H   86.376404   41.272755   68.523575
H   33.695045   71.571404    3.801605
H   66.010574   64.139160   46.812759
H   45.415058   75.315422    0.439344
H   83.505135   27.670345   15.864214
H   67.965111   29.642160   62.793358
H   83.089973   20.322397    5.947089
H    1.641668    1.541332   50.795464
H   74.494499   54.285313   68.011406
H   55.574226   65.194313   59.672352
H   23.844131   98.428574   94.692444
H   48.761227   32.291779   52.881958
H   54.886951   63.520470   43.161201
H   97.557243    0.889346    4.335550
H   38.310795    4.202787   56.218147
H   88.300583   47.221512   38.795540
H   84.154930   48.604122   19.302025
H   29.409784   57.323395    1.205023
H   49.550419   91.558952   99.522095
H   97.751633   47.058704   20.168650
H    4.442884   61.480236   18.300928
H   20.765549   48.229187   12.917648
H   64.099693   72.692741   31.092888
H   21.291277   21.884747    2.219751
H   89.501457   74.802727    7.944515
H   85.813217   52.810017   50.008732
