100
TIME:    3.582, STEP:  3582
H   75.086334   93.533752   95.866592
H    1.629730   98.954330    3.951458
H   41.326073   31.606884   81.294350
H   82.077835   85.071220   43.821835
H   63.087402   59.870602   68.581955
H   72.477547   97.327446   33.483269
H   65.235985    3.210479   70.570000
H   38.348160   98.491165   79.306908
H   65.575539   41.898758   74.613655
H   76.954430   67.815575   47.958420
H   67.066116   10.372021   94.713295
H   19.124939    3.237937   37.957909
H   15.411735   44.991486   69.106590
H   77.721428   94.035133   29.831890
H   24.071831   50.068466   78.589638
H   57.500183   98.434135   35.704445
H   36.064095   18.892735   99.471939
H   77.685997   20.508186   75.362000
H    1.059585   28.622538   52.074757
H   96.015190   29.748583   60.211845
H   51.715759   99.617188   60.018852
H    5.790176   48.839142   14.237854
H   37.919167   65.490044   29.865940
H   86.234871   79.642151   41.043301
H    1.471987    2.087929   62.993690
H   30.233091   20.878347   53.429428
H   53.199589   93.577103   71.044716
H   30.303408   23.635345   85.173576
H   89.057602   74.079117   87.849709
H   38.342361    2.184955   68.147339
H   57.031124   43.260227   25.982506
H   91.926979   53.542679   67.660378
H   22.668371    6.406504   20.491804
H   29.449997   45.453773   20.846882
H   91.731674   88.148277   42.846535
H   83.999474   65.871246    8.322423
H   23.359749   73.354965   90.713005
H   15.942243   93.396339   75.212624
H   93.874329    3.372934   97.190208
H   25.809406   76.848862   19.858183
H   90.447861   79.090073   26.736067
H    9.691429   72.621643   71.086716
H   42.094700   84.980133   60.204189
H   50.623840   72.804230   30.963232
H   45.943371   90.564453   62.632259
H   31.874920   31.237965   97.712563
H   69.719040   19.639233   59.848808
H   56.430714   32.263397   90.211815
H   69.733139   35.788116    1.585508
H    1.002696   85.259071   33.134502
H   43.271336   23.824718   91.184860
H   79.211472   31.356075   38.910679
H   83.177925   42.778381   94.832100
H   93.744041   48.764427   89.880890
H   55.589249   72.502869   30.813112
H   98.048111    8.766500   70.687073
H   23.335413   86.189445   96.665352
H   59.333000   38.612213   21.291458
H   72.780800   90.116501   36.490940
H   22.644173    3.111540   61.729988
H   85.655708   11.993299   35.114780
H   71.782433   94.601334   33.280373
H   17.241861   62.853935   87.841972
H   89.009026   61.279694   29.889072
H   74.499443   74.756233   29.145533
H   81.297310   64.200996   57.979599
H    0.177458   72.199768   40.001873
H   32.932655   22.395861   37.442913
H   35.428810   92.406662   35.575954
H    2.958179   28.306387   94.190460
H    8.287081   51.680733   19.179718
H   78.614426   32.645660   18.878601
H   73.438278   41.125286   69.907707
H   51.359737   22.702961   90.324242
H   34.874371   33.745129   72.937782
H   10.336419   37.145203   54.905483
H   92.177223   16.082314   54.398808
H    0.269197   16.501917   12.259439
H   33.282547   42.997265   57.649216
H   23.857430   13.869858   12.328650
H   80.972702   66.339096   94.076981
H   10.085401   67.620743   87.252563
H   44.432095   67.047424   71.067719
H   96.586380   18.678429   36.256348
H   77.915421   24.828045    0.517801
H   68.854675   40.627357   90.528046
H    6.388418   42.912346   94.346802
H   13.615061   18.510559   58.491173
H   30.021229   94.732628   98.894661
H   49.642071   61.904472   52.263947
H   70.612793   66.847771    9.107095
H   43.326027   64.891167    1.779326
H   15.067454   34.995026   96.006004
H   93.441292   30.507038   68.333275
H   94.658638   28.875851   98.398369
H   89.780075   54.281746   82.433861
H   78.280182   73.244286   31.185759
H   20.014914   46.736267   98.720863
H   38.075096   52.290890   45.007324
H   61.701283   86.713570   52.674927
