100
TIME:    2.586, STEP:  2586
H   42.441315   84.872002   96.778458
H   29.336006   44.954033   41.124043
H   24.205801   59.951126   92.981422
H   81.910660   26.107569   98.414978
H   72.008484   80.036819   95.588364
H   87.918465   98.406487   34.845951
H   17.438557   35.956940   92.681419
H   16.631798   12.324377   70.756783
H   90.059120   37.660110   37.307453
H    4.173021   53.514488    8.953387
H   59.711609   70.295883   90.652893
H   57.142120   53.313431    8.855040
H   78.766319    5.250721   68.100822
H   27.037529   97.105080   54.036732
H   11.955421   39.035004   26.465170
H   97.546265   85.548004   18.380980
H   16.156559   53.013474    8.802133
H   56.406433   68.943428    9.892387
H   85.542992   86.838882   99.604340
H   22.847946   50.896664   92.399574
H   10.819717   98.772186   87.054535
H   10.302689   47.516937   99.056519
H   51.217201   73.590446   58.362015
H   78.774078   67.696716   15.014369
H   37.093010   81.079895   55.641632
H   34.801487   50.553387   46.785591
H   39.085114   34.979855   51.282749
H   14.343042   77.145454   52.252529
H   67.400803   83.714302   34.929893
H    0.152833   26.836777   88.968498
H   17.829893   53.946537    4.782859
H   29.038673   81.062920   59.865089
H   52.512638   79.278419   30.764257
H   87.365471   36.731216   62.806870
H   16.490364   63.438354   82.197655
H   97.396622   87.628471   11.750344
H   27.830387    9.830553   12.231900
H   57.105362   11.622906    4.929143
H   35.917221   25.071527   93.709946
H   19.621481   70.091316   41.495411
H   58.515255   44.914570    3.270281
H   99.206200   27.918915   24.293459
H   33.515568   79.007416   88.262962
H   14.225710   56.113503   33.579605
H   32.339573   29.860806   77.401833
H   44.724621   12.240772   93.669960
H   61.935780   65.473175   50.281822
H   56.377522   22.008615   28.584923
H   40.620346   18.277309   41.317787
H   80.120628   70.106911    2.797350
H   43.347324   19.982000   80.683212
H   30.806723   23.777336    4.294796
H   62.523636   37.003235   52.679596
H   16.808697   65.017952   45.928986
H   34.888992   85.207825   22.348829
H   96.801895    9.814188    4.593262
H   60.191540   14.929318    1.937480
H   33.497650   32.672165   46.946854
H   94.229774   48.033916   12.954218
H   88.369675   26.556433   90.058601
H   22.827639   58.309353   12.771531
H    7.131641    3.872744   78.346893
H   49.640087   30.807924   56.148605
H   20.614943   55.861694   56.933475
H   34.964504   54.305225   36.390190
H   42.483070   13.715157   99.089851
H   80.088692   37.767445   91.913773
H    1.732935   65.433289   89.828354
H   85.788017   63.972862   98.042183
H   82.776184   78.211983   96.287750
H   39.915993   19.448187   31.128952
H   60.738647   65.700775   45.956894
H   38.380066   90.392876   95.439934
H   73.281609   85.732468   49.514885
H   86.852928   32.324139   97.433823
H   86.792351   73.312004   21.924938
H    1.746576    2.409184   36.784611
H   53.475307   81.628929   57.256466
H   85.520782   45.922832   46.532059
H   72.703011   68.116394   98.135086
H   61.488201   56.035015   34.547382
H   35.354340   61.116104   70.537697
H   81.417313   50.421082   76.203644
H   28.063694   33.448944   27.227264
H   26.413013   87.128418   97.068840
H   91.772888    4.041668   21.363064
H   39.867821   15.329666   46.853821
H   97.584656   98.253174   68.851997
H    9.349094   50.187553    7.043069
H   37.701298    2.878540   16.661572
H   29.852417   13.068780   88.073318
H   69.628891   89.990532   82.797569
H   51.206516    5.119665   18.975227
H   97.173927   70.093956    1.179862
H   11.879902   18.091118   75.510551
H    7.514627   93.613533   33.878845
H   57.337723   16.085537   88.466148
H   16.359854   38.255920   14.658089
H   85.522484   47.997524   28.433311
H   99.840622   12.279734   48.617096
