100
TIME:    7.037, STEP:  7037
H   41.438309   76.694283   92.703445
H    6.132149   86.188530   21.810223
H    0.730168   80.174156   40.738232
H   82.657745   42.726654   54.441906
H   32.141281   36.803921   74.903519
H   18.892735   93.584389   75.644394
H   84.160675   36.509815   40.755718
H   66.791969   97.392487   62.080856
H   80.644981    9.714566   57.133862
H   82.554085   17.425890   83.244759
H   45.690430   49.391453   61.909142
H   87.257874   76.419144   92.028130
H   95.023491   36.043987   25.789085
H    6.651365   83.385872   92.758324
H   66.077400   41.453300   12.494053
H   18.581139   96.247131   48.908691
H   58.233437   47.412937   13.994226
H   51.550549   52.418564   55.585876
H   54.866611   73.565277   34.098156
H    2.930527   56.371677   95.444328
H   46.691162   55.662476   66.243935
H   37.024384   53.425705   20.012695
H   91.788109   37.390755   31.014547
H   65.220161   21.011202   84.444977
H   77.901070   28.090691   88.509743
H   14.427227   18.650265   28.669554
H   55.271252   49.958252   39.593632
H   38.780128   84.903084   99.377029
H   64.183662   87.543892   24.528925
H   70.823059   16.674400   42.809563
H   93.005119   53.076447   52.633965
H   10.077721   58.083958   47.813713
H   66.035042   53.621742   31.745489
H   75.431633   28.823563   75.293900
H    5.824209   26.870369   53.189316
H   84.352242   36.597183   97.302406
H   54.738274   46.825806   62.953403
H   73.138969   30.172016   19.023407
H   48.039379   28.091314   62.374695
H    0.387084   53.403507   91.690964
H   54.322296   97.641319    8.133783
H    7.173918   69.198746   39.211338
H   71.847687    5.700800    9.764540
H   30.007481   30.758383   68.775383
H   46.247849   54.246349   58.285347
H   87.290092   97.136856   11.749826
H   96.711227    7.533579   93.012428
H   56.617123   67.848801    3.987549
H   70.726509   49.644978   63.767578
H   73.482666   37.841076   91.504860
H   43.018398   90.266296   27.606678
H   47.126377   10.757187   12.101378
H   54.842175   62.811646   94.170479
H   13.732986   92.386749   42.339066
H   80.498306   75.294502   60.203487
H    2.360334    5.131482   53.070709
H   42.366604   86.496605   25.264824
H    2.066516   12.329489   32.299545
H   45.269730   36.104038   71.254051
H   94.650032   68.676315   63.461571
H    3.599560   51.317528   65.734909
H   49.161049   62.442673   76.952866
H   51.803158   27.091072   50.922241
H   26.257473   80.096603   36.085522
H   11.632579   98.810333   50.894352
H   69.053436   92.443321   62.266205
H   22.977003   91.650024    6.808013
H   94.271889   19.991014    2.611892
H    7.624100   44.152390   18.883701
H   72.951622    2.081677   86.915222
H   98.575020   16.604401   77.736916
H   93.775993   17.958099   71.857811
H   48.165924   70.230850   81.320618
H   75.295113    4.048228   85.039276
H    1.451589   38.676785   34.851673
H   92.015190   58.579700   22.428946
H    5.892364   16.729984   15.543600
H   62.591381   90.588066    3.065672
H   98.964180   32.848835   96.191231
H   54.423721   25.681145   14.677238
H   48.576355    2.083136    0.574611
H   69.346626   90.106720   98.289330
H   62.982643   24.801550    0.110876
H   34.284199   14.330303   20.696270
H    9.686003    8.715499   65.594154
H   89.333359   67.537094   30.453979
H   37.140110   91.705238   59.094688
H   69.203331   41.966221   22.615135
H    1.719825    2.363829   70.637215
H   44.173626   19.754047   75.771439
H   12.005787   53.408440   82.070358
H   98.965637   24.728825   67.605812
H   36.538654   38.664661   63.186592
H   27.365723   40.099449    1.293148
H   34.927879   19.397705   77.789368
H   75.148926   17.848505    3.978621
H    4.038708   71.518753   32.485336
H   24.694284   34.650349   37.613998
H   73.486656   67.189674   55.615604
H   76.305641   98.054581   19.843494
