100
TIME:    4.874, STEP:  4874
H   87.714027   75.050728   94.683731
H   65.867256   68.980042   85.427246
H   63.534294   24.558773   66.134010
H   82.294693   31.842445   73.003548
H   51.515076   63.430099   33.549545
H   52.442074   95.927727   61.435589
H   97.524605   90.453079   71.606155
H   36.799507   10.265464   60.680363
H   33.815712   17.678299   93.285637
H   41.646019   86.366783   98.548584
H   46.887421   62.358509   70.260391
H   69.815544   67.999107   45.992073
H   33.047012   66.849831   40.716797
H   13.749665   90.052834   28.153597
H   39.786659   34.661743   16.483109
H    5.550405   85.431107   28.456806
H   32.169136    4.348865   17.087797
H    5.295212   57.664196   30.567492
H   21.182602   82.823730   20.143892
H   61.200432    2.311129   48.177193
H   75.046654   70.995880   24.955879
H   29.655472   50.554291    4.212155
H   20.669106   54.982292   92.898605
H   66.194077   95.135468   45.087700
H   55.261627   99.626053   72.535439
H   24.327879   82.569427   32.089542
H   41.788490   39.870770   96.673378
H   21.288139   83.941559   27.880381
H   17.151878   91.299644   26.775059
H   87.884537   70.208122   70.857674
H    7.876907   59.115726   23.763573
H   73.504585   17.849838   48.053444
H   13.674913   11.877478   36.885368
H   84.039276   27.049622   66.417290
H   59.616989   90.482956   21.521194
H   96.326492   67.181236    4.103662
H   47.278732   26.039890   92.517563
H   62.538548   69.758827   66.384926
H   39.339962   75.221428   71.985535
H    4.117483   55.896393   21.510141
H    2.148848   23.422636   57.175030
H   93.573112   30.605101   31.783968
H   53.223454   92.727875   53.527267
H   68.121078   94.452759   57.289391
H   33.872547   39.587852   73.191795
H   15.206314   55.880909    2.961182
H   79.812790   89.902061   72.252434
H   56.499714   45.570587   70.153435
H    7.504119   28.785076   50.049301
H   28.100079    4.916746   42.769753
H   43.172764   99.089828    4.806614
H   41.999184   11.468233   54.093941
H    9.972756   50.269836   19.794256
H   63.817711   27.679924   46.892052
H   52.720032   85.736580   41.803333
H   99.664688    7.406748   26.704346
H    5.243192   48.909599   19.545540
H   63.127335   16.598398   88.011581
H   74.678123   44.707886   37.303322
H   37.384823    2.419010   24.982430
H   67.156311   51.907406   34.380379
H   25.927496   82.575577   74.822235
H    4.955754   74.689987   99.245636
H   77.729042   68.313904   94.808838
H   25.779139   71.566620   49.463673
H    1.928535   99.972221   34.372246
H   96.517914   16.869968    2.378261
H   43.685326   96.285904   99.207985
H   99.820267   99.571785   54.544930
H   29.133890   93.290039   91.469879
H   67.261009   63.773071    3.679637
H   72.082794   89.766235   13.472827
H   89.197052   77.217690   36.779488
H   22.913128   40.943256   13.557137
H   97.167122   35.588421   70.880219
H   40.883354   19.949999   67.969955
H    9.482199    4.100002   77.247749
H   60.969707   32.021114   83.612709
H   95.239876   39.202251   72.064751
H   60.495026   43.505451    1.021867
H    6.248615   79.705429   71.296547
H    7.026778   76.058487   79.216454
H   26.165873   88.629822   94.118530
H   85.473083   29.238081   18.252800
H   15.005618   44.013893   75.272804
H   39.117176   88.084663   80.248489
H   92.678154   48.973419   55.954681
H   34.409348   15.070524   45.055840
H   56.833115   22.795576   88.327766
H   35.411396    8.744713   98.452179
H   23.486870   36.613857   36.391766
H   38.925541   62.050613   26.397924
H   97.886482   73.765785   95.918442
H   18.318008    8.876370   55.446438
H   72.322273   13.145866   28.084850
H   96.493973    3.263260   15.700756
H   75.727257   47.389446   56.880814
H   24.756216   57.736877   78.040504
H   76.527039   57.860195   36.788651
H   41.953358   53.557133   28.212297
