100
TIME:    6.874, STEP:  6874
H   52.461502   91.642250   92.852676
H   10.633392   77.356544   11.532561
H   97.927399   68.447090   42.652119
H   82.630386   49.442047   63.377110
H   33.601257   23.738752   79.323242
H   21.420956   93.760979   59.502232
H   92.704147   25.502789   28.008905
H   79.603447   83.290161   77.046394
H   84.651833   25.386429   67.394325
H   87.006142   15.085329   76.862648
H   60.852295   42.832752   77.610558
H   93.478317   68.248749    3.630670
H    5.422531   45.904354   41.986259
H   14.721962   83.888283   80.354744
H   64.097603   56.013268   20.332409
H   25.135487   10.503885   62.438965
H   71.340889   36.632244   99.155678
H   48.064762   60.350189   61.235512
H   52.328442   66.728012   25.511158
H    7.321648   59.832592   84.346519
H   56.363815   71.889496   70.668633
H   21.397415   53.209320   33.893661
H   93.964394   38.716423   35.678146
H   80.364616   19.061251   96.550095
H   83.731026   41.017822   87.305946
H   15.195766   23.454880   44.009117
H   69.327095   56.734581   36.359051
H   52.533005   77.294792   93.989792
H   60.639427   72.755104   32.233612
H   64.572769   20.708611   29.851444
H   86.590675   38.460518   65.530006
H   99.785950   62.587002   62.903450
H   54.553181   65.547783   17.061163
H   68.544624   43.761581   82.161011
H    9.881031   39.211769   43.271675
H   70.182762   23.830078   97.814766
H   39.105087   52.795044   50.109592
H   79.876747   33.155392    7.521423
H   54.920170   31.642389   78.170792
H   15.739822   68.663239   78.867050
H   65.462387   92.047646    4.293884
H   20.910828   68.559540   30.890385
H   70.444916    4.723026   97.990990
H   40.415096   28.022482   52.838387
H   60.386238   60.676960   44.337223
H   89.394249   94.027878   11.087614
H   95.437790   98.668839   91.447990
H   56.607174   66.169952   93.902115
H   65.961067   63.144161   70.269119
H   70.060303   35.360111    2.901333
H   43.029591    6.002898   25.888657
H   39.203457   25.882988   22.801125
H   51.460850   61.866516    3.636958
H   17.507286   95.045547   35.146133
H   93.476425   61.010353   58.816883
H    2.157318    5.302942   58.619614
H   32.033604   91.199867    9.762089
H   14.203656   27.723284   36.497910
H   32.414726   29.215786   83.767067
H    5.406630   56.147594   68.097679
H   93.317436   58.897217   78.444412
H   54.946236   63.959854   84.327362
H   40.736439   38.214027   62.099640
H   15.064529   79.208679   40.511463
H    5.162727   11.828911   35.715076
H   79.066833    0.546539   52.628372
H   36.055038   86.014069   98.938126
H    5.531517   10.668433   94.819550
H   99.499977   55.864532   29.107265
H   69.648643   93.883720   87.258453
H    3.751146   27.694748   79.691841
H    7.189847   23.382023   59.911873
H   58.793655   78.291809   85.499084
H   78.884117   14.364380   94.724365
H   93.594597   38.441814   22.494091
H   88.162544   48.132290   33.396721
H   91.088470   30.838528   12.652872
H   54.933346    1.245727   94.064217
H   91.146965   33.327618   94.373100
H   62.417526   34.560829   28.719841
H   45.386543    0.396438   90.832336
H   57.115364   89.049667   11.925930
H   52.672028   22.075598   84.588364
H   23.070240    0.381867   35.583302
H   17.622602   18.911926   81.395226
H   93.084030   61.549934   19.134811
H   26.253710    3.556728   51.322243
H   66.581841   55.010250   24.305176
H   98.337021   11.439234   71.970345
H   58.585606   26.460735   69.943970
H    5.335101   44.607544   78.628098
H   86.905289   12.470035   64.499321
H   26.090000   33.773617   50.581551
H   11.612617   30.210413   90.302307
H   37.745857   33.998711   74.043671
H   61.685806   24.284712   12.398045
H   16.976698   62.164459   41.859528
H   25.008913   26.585243   40.885887
H   81.251640   66.485802   69.268517
H   66.180321    2.237615   35.546322
