100
TIME:    6.396, STEP:  6396
H   84.787186   35.476311   93.290298
H   23.833168   51.454845   81.394203
H   89.707397   34.057289   48.264622
H   82.550156   69.135040   89.576172
H   37.882660   85.425034   92.284149
H   28.835003   94.278831   12.163227
H   17.756283   93.225624   90.628609
H   17.173309   41.936825   20.934002
H   96.401985   71.344040   97.480843
H    0.061875    8.221045   58.147007
H    5.314682   23.599264   23.654743
H   11.722176   44.288944   37.654320
H   35.924789   74.811577   89.482841
H   38.388741   85.361610   43.979046
H   58.291817   98.710594   43.318508
H   44.355042   52.311501    2.116768
H    9.778852    5.017379   55.641457
H   37.842640   83.609802   77.806190
H   44.885220   46.674477    0.329547
H   20.198677   69.983925   51.802025
H   84.729019   19.475040   83.644127
H   75.571091   52.574768   74.599808
H    0.346417   42.603966   49.353836
H   24.777004   13.342989   32.050503
H    0.827411   78.925400   83.775795
H   17.389746   37.577957   88.966133
H   10.544285   76.603958   26.873594
H   92.866135   54.983360   78.191635
H   50.245903   29.386871   54.829498
H   46.243702   32.538994   91.852615
H   67.780220   95.597618    3.347823
H   69.604614   75.795502    7.154268
H   20.882412    0.521058   73.999146
H   48.348366   87.567551    2.298747
H   21.777527   75.403114   14.188100
H   28.630697   86.390663   99.317268
H   93.258797   70.299927   12.445008
H   99.635384   41.904186   73.788765
H   75.096191   42.057732   24.492186
H   60.760853   13.410912   41.258518
H   98.130875   75.644112   93.032692
H   61.193939   66.685059    6.487514
H   66.331268    1.855525   63.462662
H   70.936417   19.999411    6.103163
H    1.850522   79.537827    3.432876
H   95.564720   84.910751    9.145666
H   91.703415   72.674088   86.860252
H   56.580997   61.246704   64.326157
H   51.989471    2.734047   89.334854
H   60.025616   28.083662   36.323418
H   43.062412   52.151154   20.850533
H   15.968115   70.239120   54.178627
H   41.545063   59.094910   31.398611
H   28.575478    2.843526   14.054301
H   31.536377   19.119541   54.750645
H    1.561970    5.805752   74.891861
H    1.731492    4.992520   64.300270
H   49.796051   72.864174   48.809677
H   94.716339    9.016196   20.461998
H   36.948547   19.405575   81.693138
H   63.165272   81.127579   15.714062
H   71.911385   68.409012    5.954032
H    8.284449   70.831459   94.877533
H   82.241928   76.604828   53.490604
H   86.191193   50.006824   91.200310
H    8.430779   24.308830   24.365278
H   74.405319   69.486542   75.860855
H   38.550392   83.331032   71.968384
H   75.678749   90.210571   59.088024
H   59.964127   69.843681   88.264984
H   18.930550   60.217361   85.424690
H   46.587322   39.254303   24.906612
H   89.959641    1.935455   97.752502
H   89.408928   44.616070   23.124678
H   70.546501   37.759853   86.257950
H   76.864601   17.495960   65.558472
H   47.676357   72.211327    4.175562
H   32.476040   32.501167   67.668312
H   68.222862   34.731655   89.041405
H   85.859482   60.599342   69.900078
H   36.032372   95.451218   62.262913
H   21.248041   85.949844   51.914562
H   22.435989   14.081920   39.066376
H   90.184227   59.478783   79.241020
H   40.897514   48.812454   27.731812
H    4.084120   43.990349   85.940765
H   94.329094   38.311485   28.529425
H   58.894279   93.259277   29.261246
H   88.417587   38.052696   75.879768
H    0.845834   46.128201   52.857208
H   85.773308   18.797852   68.533615
H   51.538128   76.519791   55.392937
H   95.449524   19.430553   13.617076
H   65.414925    1.211099   58.071442
H   46.009621   76.815292   63.059361
H   22.205002   43.160065   37.087357
H   54.917809   34.732849   69.349487
H   25.931566    2.933682   50.480751
H    4.022495   64.421684    9.304474
H   36.491039   14.503582   81.593712
