200
TIME:    0.254, STEP:   254
H    9.901351   62.428532   15.578968
H   28.089067   33.082550   90.465523
H   17.844254   69.750931   46.037773
H   18.314426   77.137398   44.133598
H   15.061502   84.084076   53.457214
H   89.163147   52.435013   65.135002
H    3.562064   55.294197   49.922344
H    3.202359   89.490936   24.575390
H   87.997032   87.296341   47.377888
H   10.368374   74.702782   95.520241
H   12.681658   94.893257   93.404083
H   30.835693   42.396523   13.409354
H   11.517787   87.472511   60.717888
H    3.741932   53.266003   42.940426
H   18.945940   72.052361   42.944145
H   28.892315   25.389530   54.020996
H   84.866013    8.374187   14.752327
H   36.229729   83.840057   43.271122
H   65.491226   29.195068   42.689926
H   90.100792   79.512413   36.928013
H   58.253090   77.457123   25.199070
H   89.717354   49.349495   70.035187
H   94.585976   62.439667   48.800285
H    8.904767   88.186821   91.542183
H    3.854973   13.267038   44.910793
H   18.649504   62.957546    6.494162
H   99.166847   59.077671   49.644760
H   94.831573   70.706963    0.768109
H   11.658246   56.104195   38.256386
H   92.416779   21.139387   98.141617
H   13.343214   52.034153   16.211929
H   31.671467   63.834457   93.947807
H   26.785027    9.286787   73.350159
H   95.963203   63.593193   38.535004
H   47.316593   89.222519   34.112598
H   32.603943   49.602745   79.637016
H   86.666290   74.126831   86.060036
H   32.222393   45.117458   14.537975
H   52.552109   45.899296   44.742828
H   89.948486   39.630917   63.149506
H   80.508476    4.569816    1.988971
H   14.036150   42.813316   39.416016
H   76.449783   87.460320   50.848133
H   37.250076   63.913864   19.249041
H   29.255335   76.722290   44.869133
H   40.862778   13.474150   42.840137
H   80.237976   25.526291   96.485985
H   89.774986   65.550392   47.144363
H   87.621796   28.220882   61.176426
H   61.616398   17.864683    5.120123
H   77.875198   70.318916   27.313900
H   20.602938   35.938946   63.842690
H   52.554291   94.021584    8.111382
H   22.198231   82.479141   81.910484
H   76.606308   76.073578   90.320580
H    5.126184   72.005165   79.106659
H    5.390530   16.798439   49.504414
H   67.561630   58.904850    5.050757
H   27.885748   74.747910    7.465091
H   42.779491   95.910561   66.735428
H   50.374176   15.103262   41.827469
H   90.188232   16.458048   49.173473
H   71.833008   25.496489   84.412598
H   24.465244   65.172310    3.980081
H   71.573425   76.287781   18.502085
H   38.190529   17.105036   33.114944
H   85.652199   22.866680   86.124367
H   97.263023   91.481758   87.548729
H   17.020468    6.042438   61.802605
H   45.156376   41.873997   50.981846
H   58.459023   76.834274   73.655823
H   31.747032   23.453840   44.666828
H   77.938126   25.905132   99.026962
H    8.321462    8.656968   60.980167
H   79.315506    1.098208   66.954437
H   53.667625   18.582333   62.785988
H   95.368408   30.471384   71.947548
H   26.036697    6.224871   47.488808
H   11.636997   30.317179   34.628384
H   68.065140   90.588867   93.597687
H   43.962292   29.865435    0.925814
H   27.252041   68.338493   87.424431
H   10.945092   13.819869   89.870094
H   24.217527   62.317390   94.307831
H   38.409676   99.471893   57.385445
H   25.061642   85.284485   27.491386
H   36.482681    2.813282    1.803419
H   75.215065   18.023291   11.970239
H   66.116135   72.085487   77.217278
H   23.374008   86.674675   54.711483
H   40.655945   35.013653   80.692215
H   83.957909   88.658295   98.673325
H   47.924755   16.704205   95.331100
H   59.400082   93.930672   69.489082
H   25.479649   56.736824   68.522865
H   68.692299   28.022308   28.403429
H   79.495506   13.794943   98.932175
H    6.509825   28.656258   48.726124
H   36.700676   69.637787   52.930862
H   67.447853   98.154892   27.253824
H   10.490869   80.813477   69.599037
H   91.092903   76.868378   65.787376
H   23.469603   36.658325   30.698494
H   22.548628   67.965332   90.718323
H   25.320181   27.288750   25.541431
H   87.977348   26.087446   43.235321
H   66.321495   30.270617   56.194077
H   64.668739   34.811905   18.200258
H   73.152351   39.912933   99.809563
H    4.816463   27.865191    5.605784
H   47.378738   95.945122    0.805701
H   86.556107   63.697403   90.670631
H   56.850883   80.437119   93.630852
H   63.176750   19.095524   74.592957
H   63.383064   82.551544   26.281780
H   13.467145    5.387743   79.565964
H   31.999332    8.639844   84.343307
H   40.700085   27.685574   33.698662
H   19.394022   58.239231   82.847733
H   71.152092   46.954281   49.865013
H   40.700691   21.852467   87.061073
H   17.685024   27.148380   48.599976
H   32.573921   21.232113   24.444460
H    3.871043   66.814995   17.252132
H   76.497459    8.605466   92.350105
H   48.235256   62.735508   25.261072
H   95.038643   49.255295   70.514084
H   75.122444   87.679771   35.120815
H   92.640007   51.976902   84.571220
H   68.423767   24.082989   66.740120
H   49.174095   84.685822    3.946362
H   81.162636   86.190231    9.657140
H   92.392036   83.275871   97.479294
H    0.234088   13.361910   49.879433
H    5.117695    1.116982   55.773560
H   61.985199    1.608883   83.475349
H   68.915894   86.600197   56.035606
H   91.337761   63.783825   82.977165
H   46.679169   44.529419   71.546776
H   43.455528    8.418473   95.068481
H   51.310757   62.656960   15.362170
H   56.593796   41.436203   46.573254
H   54.555450   57.018673   98.912033
H   57.071571   26.020901   78.356422
H   40.960003   69.302765   49.526340
H   46.453094   62.216965   29.175659
H   45.062370   96.716484   47.181652
H   42.270164   72.897560   68.744652
H   65.559540   64.207809   97.805283
H    9.908253   88.827644   89.473022
H   75.726753   61.547710   51.238506
H   34.376701    6.722330   47.713600
H   76.826126   31.315105    2.973107
H   10.279980    1.464092   75.606560
H   14.167690   54.248768   61.006516
H   63.917702   43.563618   54.491676
H   59.457806   61.303410   80.921555
H   46.245110   36.435272   10.052124
H   11.741055    1.681580    2.085751
H   63.522717   56.372589   78.778336
H   54.093468   83.840614   83.043648
H   42.946789   22.983749   35.422691
H   65.821983   33.959572   37.226231
H   11.788563   20.590939   70.599792
H   58.820137   22.563406    9.962105
H   12.154902   63.993839   62.225292
H   74.658760   97.340523   52.370113
H   23.644444   31.569534   48.591633
H   94.263191   28.124681   36.823875
H   27.111847   10.354064   90.245697
H   79.097534    5.800312   35.974899
H   45.679298   64.927155   57.501106
H   37.943443   76.852676   90.030106
H   71.052147   74.208679   74.568253
H   70.787170   94.931229   98.573143
H    1.339618   47.736473   23.300177
H   35.273922   53.358490   87.493614
H    1.854080    9.214211   65.059219
H   75.243538   21.054110   68.971100
H   85.634560   54.605278   86.582497
H   81.162216   85.691109   41.393791
H   19.510050   30.123135   70.127258
H   64.990646   90.151230    6.347119
H   51.785759   25.246267   77.705330
H   85.704010   87.727158   78.339157
H   99.553520   36.341904   84.024269
H   31.839487    4.284755   99.575333
H   89.748459   67.817574   26.016411
H    6.212948   61.235836   66.703415
H   49.868156   58.197155   65.879898
H   48.489071   30.561157   79.201485
H   47.538147   85.309662   24.446066
H    4.411446   17.857090   58.126915
H   34.858967   64.089859   33.595425
H   84.414169   53.630009   21.770489
H   75.362320   10.417799   29.374565
H    9.554339   85.941154    3.939313
H   28.502619   97.127937   46.571884
H   11.726617   11.651068   77.390938
H    7.861718   34.518444   97.554291
