100
TIME:    2.346, STEP:  2346
H   58.671783    6.881205   96.998184
H   36.012032   31.940733   25.984884
H   20.080435   42.684280   95.797585
H   81.870377   35.995811   11.570379
H   74.158142   60.799763    2.095781
H   91.639168   98.666496   11.077742
H   30.016987   19.750275   73.913109
H   35.495323   91.561096   92.791695
H   95.958778   60.735062   52.415485
H   10.730944   50.068443   99.554832
H   82.035828   60.638905   13.771231
H   66.302429   41.283401   25.937864
H   94.033653   19.771324   91.955803
H   38.921074   97.844826   35.771961
H    9.035805   60.472992   38.002205
H    7.196472    6.539351   38.303482
H   35.452545   37.141731   86.950989
H   51.277649   80.614571   18.213615
H   81.803978   76.771744   86.959076
H   29.313400   55.992489   76.059242
H   25.061661   22.665470   93.569427
H   87.293655   47.198334   19.494675
H   54.421547   75.542351   65.228470
H    1.072675   64.818298   32.839661
H   45.676994    0.115526   53.871002
H   35.901951   57.703655   69.280525
H   59.781525   44.957272   46.520176
H   34.593437   65.943062   44.318569
H   62.182297   61.939400   46.275108
H   90.949959   32.776718   69.888908
H    8.387723   32.424465   23.773197
H   13.884928   87.695000   82.083107
H   35.606510   96.838234    9.143163
H   77.225090   58.725845   72.917953
H   22.456856   81.580444   67.582176
H   76.529922   68.775932   12.575234
H    4.811316   18.620531   93.321045
H   67.024742   16.015606   87.992348
H   46.048447   30.300104   16.967398
H   42.226353   92.558357   22.612200
H   74.917229   36.680317   97.615280
H   20.776093   17.146820   13.018620
H   31.448309   77.568207   70.926537
H   29.550722   52.090675   10.113788
H   53.156834   39.329189   56.864723
H   47.820934    7.663136   92.695839
H   60.058949   52.421417   47.976524
H   56.364704   19.537607   13.735069
H   33.605576   38.153408   50.892372
H   75.088890   66.455788   19.582691
H   43.365635   43.152641   78.152695
H   19.143820   46.048115   20.050968
H   57.544998   35.611633   66.619072
H   22.365948   68.932747   35.338165
H   53.996048   64.169006   20.312696
H   96.501602   10.066416   12.763428
H   44.977306   21.854439   79.111519
H   51.368744   55.336960   53.128494
H   75.300331   37.893536   31.379206
H    4.207893    8.108557   96.884773
H    7.687814   69.470528   31.483158
H   15.648792    6.107088   89.205048
H   33.360180   47.173958   72.613449
H    4.134481   54.556152   63.450199
H   25.438156   73.473633   14.039239
H   57.226723   25.646309   84.899178
H   99.344063   29.470655   80.326859
H   18.311699   51.707703   78.354965
H   73.827568   81.217735   13.094670
H   77.912903   66.141670   96.793121
H   47.536842   35.778236   34.008923
H   80.528381   73.665863   28.384451
H   54.028259    2.265087    1.592731
H   78.562370    0.919305   63.778801
H   75.280663   31.981779   79.240463
H   81.119743   57.930420   38.073582
H   79.956940   23.210890   32.540226
H   42.199673   97.321068   44.001461
H   74.010773   46.627789   43.853226
H   84.473030   81.186462   18.811073
H   56.791546   53.552105   20.203651
H   17.345917   59.548721   90.606056
H   66.234207   46.414734   53.344761
H   11.553197   12.911837   49.148651
H   38.099243    2.139623   20.333923
H   97.295349   95.226509    4.696540
H   23.838766   32.779617   35.409729
H   93.721130   17.467896   71.349556
H    4.367984   63.550591    9.006529
H   58.921391   12.753418    8.082587
H   20.030640    0.109595   83.004959
H   51.870075   71.943657   78.223595
H   35.807346   97.928207    0.407801
H   73.978127   55.536007   84.997078
H   16.029987   39.589531   69.995415
H   87.691544    3.090908   46.275085
H   76.388016    2.312784    2.268698
H   15.478847   36.212463   18.498566
H   96.955589   46.962978   48.536461
H   84.935837   18.444256   71.732330
