100
TIME:    8.577, STEP:  8577
H   37.294182   35.469170   91.293533
H   63.600510   69.640411   18.911892
H   27.201670   90.968079   22.659145
H   82.916229   79.277641   70.029366
H   18.341825   60.241627   33.146622
H   95.010864   91.915993   28.154705
H    3.450317   40.498482   61.185734
H   45.751007   30.621424   20.681740
H   42.788841   61.649094   60.196865
H   40.491707   39.538013   43.544960
H    2.443383   11.356702   13.569811
H   28.480934   53.611233   82.409081
H   96.822723   42.832016   72.747925
H   30.399027   78.639168    9.952885
H   84.782234    3.892899   38.432556
H   56.660873   61.553185   21.074966
H   34.395790   49.271847   54.186501
H   84.476440   77.482216    2.206297
H   78.854141   38.169514   15.232173
H   61.433666   23.671968    0.294682
H   55.305382    2.349141   24.450098
H   84.665688   55.470078   88.867523
H   71.226891   24.869383   86.951721
H   22.130587   39.434052   70.072357
H   22.821484    5.960510   99.883034
H    7.165739   73.253525   83.748459
H   22.474283   85.941422   70.151108
H    8.839760   56.785069   50.283691
H   97.669075   27.264326   51.732292
H   29.872654   78.558548   65.235474
H   53.615871   91.172050   30.794136
H    7.314359   15.539827    5.248205
H   74.509903   40.947838   70.480850
H   40.501251   87.691895   10.416399
H   67.497856   10.270714   46.884800
H   18.221464   57.219200   92.461708
H    2.445308   90.426033   84.299461
H    9.489723    1.986932   27.696388
H   83.034325   94.540306   13.137440
H   55.335266    9.232945   12.854688
H   49.074036   50.478485   44.414883
H   77.391006   75.237869   17.832279
H   85.100861   14.938662   20.999256
H   31.673656   56.610878   19.348522
H   12.664928   93.492104   90.067924
H   67.410332   26.505047   18.006311
H    8.748141   91.284065    7.797641
H   56.711117   83.710312   99.273735
H   15.745842   22.103294    2.332862
H    5.815060   61.280865   83.829002
H   42.912655   41.589806   43.842575
H   21.971163   67.857834   11.009484
H   86.780052   71.741089    4.733263
H   78.066742   67.266815   10.295951
H   57.881508   10.251777   73.295578
H    4.278402    3.511552    0.645468
H   39.996056   42.060875   71.731499
H   87.394958   66.895409   92.630394
H   66.726204    1.176648   53.030235
H   93.025810   87.044708   19.660301
H    0.743874   79.700439   45.665073
H   94.503410   48.108566    7.271860
H   56.354137   22.003988   45.319824
H   32.006641   88.485580   94.272339
H   72.760376   75.813843   94.307220
H   74.450294   15.885098   53.323536
H   99.419235   44.890659   81.159348
H   87.893585    8.064759   76.232803
H   84.378632   33.497810   22.297813
H    4.219243   79.444290   83.651932
H   49.671124   11.820878   59.267067
H   66.971207   66.809959   84.736435
H   47.755005   94.058067   41.836353
H   41.394566    6.582011   93.537910
H   75.634048   40.944393   51.615513
H   28.422548   57.279221   18.806417
H   45.757645   83.439331   42.857109
H   34.939816   89.896034   88.121582
H   72.810417   28.325367   13.375557
H   78.901421   41.790001   82.005058
H   78.724297   18.015360   92.618515
H   84.907242    0.093691   69.451317
H   60.389832   50.555943   46.773716
H   40.233109   46.111916   80.040611
H   34.702179   12.378525   16.309525
H   53.894215   24.100574   37.396225
H   39.993290   79.734383   32.527733
H   93.970787   18.733742    6.647756
H   33.683109   16.618830   58.042000
H    8.016385   56.396919   30.824568
H   75.028862   36.563633   14.592673
H   12.910044   40.551437   96.955482
H   35.255634   84.869225   82.277161
H   76.198868   33.529530    5.132618
H    8.298809   81.454361   13.177063
H    2.346613   57.035400   24.435936
H   81.800591   59.895149   43.917763
H   21.721720   10.850610    6.696867
H    0.124715   73.839760   26.623692
H   71.960785   58.531673   71.491150
