100
TIME:    9.428, STEP:  9428
H   79.745026   57.429024   90.514420
H   40.097244   15.752760   72.571526
H   41.829533   52.191765   12.669716
H   83.059067   44.217522   23.381369
H   10.716249   28.452759   10.074537
H   81.817871   90.994041   12.431952
H   58.847118   97.960777   27.735058
H   78.864090    4.244430   42.546440
H   21.869637   79.828140    6.627819
H   17.246084   51.757114   76.865059
H   23.285431   45.597015   31.594553
H   95.999184   96.267708   21.833530
H   42.557449   91.324516   88.178879
H   88.263687   76.016151   74.715645
H   95.118477   27.877388   97.509056
H   22.443886   87.121506   50.434631
H   65.963326    5.560585   31.656385
H    2.679092   36.072319   72.704178
H   92.112061   73.870605   60.063679
H   38.508244    5.599775   58.234673
H    4.805464   17.630327    1.351650
H   66.251892   56.599792   16.396957
H   59.864815   17.951502   62.604416
H   43.060871   49.614471    6.868446
H   92.385727   38.473236    6.164894
H    3.151594   48.166061    3.664762
H   49.092422   50.567188   87.031906
H   37.034485   96.506882   78.412865
H   16.174160    4.474186   11.505707
H   62.504326   57.496506   32.887062
H   87.106789   67.481888   63.465744
H   61.046986   92.027069   26.466866
H   34.453018   78.685242   47.145653
H   76.457352    9.702738   74.564980
H   46.318947   45.838081   98.659058
H   92.197708   23.874231   89.786751
H   84.066681   59.261482   51.354816
H   74.314018   86.416969   87.749153
H   47.114124   75.997398   30.668800
H   75.180649   29.565193   79.810562
H   90.914871   79.679260   64.464073
H    5.673349   78.575073   61.275425
H   92.424530   20.044765   82.466789
H   77.339760   70.897987    2.554203
H   38.846756   59.924496   62.893536
H   56.429306   42.735485   21.463629
H   15.401448   37.566479   15.970200
H   56.763058   92.475342   51.928379
H   40.619049   51.622578   68.389160
H   23.677168   74.238762   24.326771
H   43.778126   59.501495   51.396439
H   63.329906   88.890640   55.146614
H    4.428129   76.675476   55.310135
H   58.357025   53.380638   47.847359
H   90.123146   84.829803   80.528351
H    5.338322    2.616383   71.675415
H   93.946793   17.505806   52.668739
H   24.027449   86.528603   70.711327
H   33.845379   37.136612   87.697868
H   36.867832   52.456432   95.455849
H   54.428959   40.125378   79.319054
H   64.299767   40.187576   68.769768
H   14.127166   63.933250   86.964203
H   90.443726   93.121307   71.171616
H    6.535620    7.843786   73.557137
H   22.172371   73.579826    3.641398
H   31.142857   74.310974   22.246250
H   29.109451   56.734993   16.915527
H   26.792002   72.350388   68.926270
H   21.502762   22.188898   81.846985
H   22.643494   53.917698   49.060677
H   96.894722   38.554100   47.113911
H   92.268768   51.961811   20.014675
H   22.663372   52.721127   42.973427
H   16.627111   42.197468   16.138739
H   48.543159   11.818717   61.543266
H   23.046444    9.782330   57.952438
H   74.916618   34.254326   35.123398
H   13.621249   25.825710   22.873804
H   37.166893   95.430916    8.690615
H   95.384346   26.819345   43.482140
H   48.764969    5.618095   98.257759
H   14.215010   64.787758   27.818058
H   98.780876   18.933575    2.315955
H   93.266312   59.140839   33.814697
H   34.305996   55.361694   96.492004
H   96.829643   17.859764   73.106575
H    7.656674   50.638588   97.825958
H   51.343021   69.236351   51.081917
H   32.776768   21.382248   61.242592
H    9.855661   82.514481   32.564232
H   75.875427    4.555481   13.169068
H   89.806580   10.400778   48.086296
H   57.519997   85.087875   63.932049
H   93.585129    5.226085   32.729927
H   72.635727   23.430456   80.480347
H   14.252238    8.732306   94.974838
H   20.079088   52.956844   89.609581
H   59.584831   77.514580   55.344570
H   24.821098   36.697010   89.510620
