100
TIME:    6.527, STEP:  6527
H   75.928055   23.463270   93.170364
H   20.215656   58.553944   89.653664
H   91.960159   43.482109   46.726467
H   82.572144   63.738007   82.396118
H   36.709305   95.925262   88.732101
H   26.803120   94.136909   25.136597
H   10.890742    2.070961    0.872985
H    6.876968   53.269596    8.905761
H   93.181755   58.748962   89.235374
H   96.483833   10.102261   63.276188
H   93.129395   28.870367   11.036179
H    6.721924   50.855335   28.329643
H   27.565384   66.889931   76.465996
H   31.902313   84.957832   53.948566
H   59.882942   87.009026   37.018970
H   39.087936   40.853798   91.242676
H   99.244484   13.681867   67.566902
H   40.644100   77.235306   73.264687
H   46.925098   52.170456    7.230846
H   16.669617   67.201454   60.721123
H   76.955292    6.433224   80.088081
H   88.130188   52.748672   63.443939
H   98.597343   41.538551   45.605896
H   12.605194   14.910128   22.321348
H   96.142036   68.537109   84.743263
H   16.792574   33.705086   76.646904
H   99.248009   71.158951   29.473166
H   81.812210   61.098000   82.521255
H   53.094337   41.272228   48.636902
H   51.266941   29.296776    2.266803
H   72.935387    7.344755   92.983543
H   77.876068   72.175491   95.027000
H   30.109840   90.936348   85.800659
H   53.883324   75.562149   96.779953
H   18.517319   65.484566   22.158663
H   40.018291   96.651024   98.905495
H    5.823605   65.502563   22.767248
H   94.220360   39.506504   83.033684
H   69.567230   39.203300   11.797663
H   48.422634    1.146904   51.565853
H   89.177795   80.139641   96.118996
H   50.154007   67.198776   13.175309
H   67.458649    2.641400   72.925407
H   62.571186   22.198202   18.911448
H   90.486855   74.368668   14.643214
H   93.873650   87.409378    9.677874
H   92.726852   79.798172   88.117561
H   56.587994   62.595963   72.431702
H   55.818367   91.884254   84.109726
H   62.775105   30.078066   27.163717
H   43.053417   39.504105   22.231274
H   22.336113   58.083313   45.579353
H   44.262569   59.854492   23.790293
H   25.542145    0.705949   19.834625
H   21.105610   30.599731   55.865032
H    1.725130    5.667953   70.432312
H   10.036176    1.212394   76.759422
H   40.041412   60.492973   45.435532
H    5.048289   14.551904   10.405386
H   28.304298   29.475040   77.967186
H   71.428734   75.034927    5.500425
H   67.261940   67.189682    0.026447
H   17.178061   61.892372   85.894470
H   91.236984   77.318436   49.933559
H   91.390335   39.543575    3.399742
H    0.383673   17.796410   32.111023
H   63.895096   74.016052   82.185379
H   29.501366   90.822914   78.230942
H   82.207161   80.797745   50.871540
H   62.617668   76.432060   87.989136
H   14.770411   51.304260   83.853554
H   35.786259   34.906693   34.497971
H   81.418335   95.455322   94.394348
H   86.524513   36.325626   15.341455
H   76.863029   37.946751   96.188492
H   79.960899   25.891846   56.744141
H   59.573818   60.873280    6.498910
H   38.630657   23.935347   74.902336
H   74.505409   34.346867   90.502602
H   79.435013   53.463264   58.614281
H   38.595963   96.806473   70.092606
H   31.078138   86.799377   40.955585
H   30.722435   16.272497   51.542519
H   99.197273   70.688622   67.275597
H   34.519020   40.617958   15.032810
H    1.068902   48.802704   95.037766
H    3.078307   28.786720   34.775993
H   61.001122   82.777039   27.902992
H   91.136093   30.758791   74.808357
H   89.264145   40.738163   57.539635
H   91.134361   25.871464   71.300095
H   61.230801   86.372375   57.888565
H    3.846846   23.361393   23.747507
H   78.075966    9.158504   66.904587
H   43.744865   65.081741   66.069702
H   33.025055   37.986908   30.321075
H   44.519524   42.250717   61.815628
H   25.678705    9.415532   47.851196
H   97.782005   64.987373   98.331673
H   44.627567   11.141930   68.974648
