100
TIME:    2.264, STEP:  2264
H   64.217194   14.400897   97.073257
H   38.293007   27.494833   20.812338
H   18.670935   36.784775   96.759773
H   81.856613   39.374107   16.065231
H   74.892609   54.227100    4.319044
H   92.910408   98.755333    2.956850
H   34.314449   14.213047   67.500603
H   41.940361   84.466675    0.320310
H   97.974495   68.619003   57.577396
H   12.971567   48.891045   96.344200
H   89.663269   57.339436   21.669874
H   69.431732   37.173141   31.774496
H   99.249992   24.732414    0.106247
H   42.981285   98.097572   29.531498
H    8.038269   67.797638   41.944176
H   10.493732   13.711505   45.110123
H   42.045227   31.718941   79.484955
H   49.525314   84.602211   21.056702
H   80.526482   73.332138   82.638611
H   31.522430   57.733562   70.476295
H   29.927658   30.829060   95.795349
H   79.432236   47.089478   26.477737
H   55.516365   76.209251   67.574509
H    8.691429   63.834843   38.929977
H   48.609856    6.618752   53.266037
H   36.277943   60.146664   76.966774
H   66.852547   48.366222   44.892963
H   41.512062   62.115582   41.607800
H   60.399307   54.499641   50.151390
H   87.805641   34.806198   63.370052
H    5.161695   25.070745   30.261715
H    8.707533   89.960960   89.674263
H   29.830368    2.837720    1.755954
H   73.760460   66.240677   76.372574
H   24.495407   87.778992   62.588730
H   69.400467   62.334484   12.857072
H   96.946381   21.623774   86.859741
H   70.414299   17.516445   82.205452
H   49.509949   32.086548   24.913588
H   49.949512    0.234616   16.160593
H   80.521446   33.866947   95.683395
H   28.145782   13.466462    9.166267
H   30.741995   77.076477   65.003258
H   34.786934   50.716209    2.096279
H   60.269398   42.564220   49.847878
H   48.878841    6.099110   92.363014
H   59.417698   47.962067   47.188881
H   56.360325   18.693346    8.661369
H   31.208860   44.944408   54.163689
H   73.369713   65.208321   25.317661
H   43.371891   51.069115   77.288101
H   15.158995   53.657413   25.434345
H   55.843964   35.136169   71.381218
H   24.264675   70.270302   31.719660
H   60.524292   56.980129   19.617018
H   96.399002   10.152594   15.554901
H   39.779110   24.220497   71.312660
H   57.474701   63.080765   55.240555
H   68.832771   34.428905   37.674690
H    9.618898    1.805533   99.217049
H    2.515111   73.284248   37.876270
H   18.558819    6.870489   92.914917
H   27.798115   52.765663   78.238937
H   98.503723   54.110092   65.676277
H   22.183418   80.022522    6.402726
H   62.264137   29.722786   80.050697
H    5.923243   26.635702   76.367996
H   23.975975   47.018127   74.434891
H   69.741081   87.109734   18.237724
H   76.251282   62.017349   96.965790
H   50.140633   41.357430   34.993008
H   87.289978   76.387268   22.380781
H   59.374725    6.320919    3.695368
H   80.366631    6.108508   68.652306
H   71.326805   31.865103   73.024399
H   79.181602   52.674667   43.590839
H   72.512177   30.318136   31.089865
H   38.347164    2.682727   39.472668
H   70.078186   46.868649   42.937958
H   88.494453   85.652069   25.875465
H   55.186855   52.703777   15.302910
H   11.193161   59.013199   97.462746
H   61.046291   45.045898   45.534641
H    5.912196    5.894991   56.638458
H   42.091888    7.268860   28.282928
H   99.182190   92.214821   99.002144
H   18.362173   38.741684   31.499662
H   92.401093   24.033051   72.202888
H    2.666089   68.116295    9.677340
H   66.171402   16.127335    5.151371
H   16.674866   95.681534   81.273270
H   45.802280   65.777641   76.660820
H   30.546051   95.470810   94.064102
H   66.052895   50.561779   79.467934
H   17.447933   46.934822   68.111076
H   80.918686    6.328911   50.510468
H   82.896866   97.607002    6.984642
H   15.177772   35.514282   19.810783
H    0.861866   46.609509   55.405037
H   79.843369   20.550373   79.630035
