100
TIME:    7.187, STEP:  7187
H   31.294306   62.938484   92.566116
H    1.989851   94.316124   31.268192
H    3.308663   90.965935   38.976986
H   82.682922   36.546844   46.219326
H   30.797232   48.827084   70.836288
H   16.566151   93.421883   90.498825
H   76.298584   46.638981   52.485912
H   55.002266   10.369340   48.307892
H   76.957695   95.292542   47.691341
H   78.457100   19.579668   89.117867
H   31.737793   55.427067   47.460976
H   81.533539   83.937912   81.350792
H   85.458519   26.965389   10.882584
H   99.224434   82.923531    4.173054
H   67.899300   28.054558    5.280787
H   12.549530   83.127625   36.457520
H   46.171364   57.333820   27.649317
H   54.758327   45.119522   50.386826
H   57.202351   79.857239   42.000301
H   98.889297   53.186787    5.656963
H   37.789948   40.729080   62.172642
H   51.405029   53.624832    7.238809
H   89.785393   36.170815   26.722441
H   51.282501   22.805635   73.305298
H   72.536079   16.194557   89.617531
H   13.719982   14.228840   14.553809
H   42.335995   43.722366   42.570240
H   26.123840   91.904579    4.335359
H   67.445229    1.153179   17.438738
H   76.574860   12.961702   54.734306
H   98.907982   66.526901   40.766441
H   19.548672   53.940052   33.927452
H   76.600227   42.646858   45.258675
H   81.769371   15.076940   68.974472
H    2.091003   15.513252   62.315979
H   97.391640   48.345688   96.830910
H   69.125046   41.332642   74.772858
H   66.938560   27.426579   29.608047
H   41.707363   24.823454   47.838409
H   86.258232   39.360462    3.492279
H   44.070679    2.788306   11.667433
H   94.532631   69.786972   46.868580
H   73.138580    6.600592   20.598827
H   20.429920   33.276085   83.442131
H   33.237061   48.328609   71.121040
H   85.353752   99.997879   12.359224
H   97.883102   15.691491   94.452095
H   56.626278   69.393753   13.268421
H   75.111885   37.222416   57.783463
H   76.632080   40.124172   81.017494
H   43.008099   75.784943   29.187679
H   54.416958   96.838135    2.254853
H   57.953823   63.681396   85.459236
H   10.259705   89.940002   48.958328
H   68.555252   88.439186   61.479504
H    2.547159    4.973697   47.964355
H   51.875500   82.168449   39.531029
H   90.897141   98.163567   28.435492
H   57.099487   42.442921   59.739006
H   84.750893   80.205093   59.195213
H   13.061821   44.342354   54.040024
H   43.837257   61.046494   70.166519
H   61.987255   16.854904   40.636292
H   36.557980   80.913712   32.012569
H   17.586369   86.830658   64.863014
H   59.838654   84.986351   71.135376
H   10.941824   96.836487   14.050384
H   83.910408   28.570078    9.782760
H   15.100246   33.374344    9.475713
H   75.991173    9.626369   86.599365
H   93.811989    6.398290   75.937904
H   81.432396   12.966584   82.851006
H   38.385803   62.812603   77.475403
H   71.992348   94.554504   76.126617
H    8.676820   38.897655   46.224812
H   95.560570   68.193382   12.335933
H   19.515793    3.746709   18.203779
H   69.638657   80.780479   11.349841
H    6.157121   32.408237   97.864357
H   47.067459   17.509491    1.754799
H   51.512230    3.635171    9.539847
H   80.603035   91.079468   85.739738
H   72.469917   27.310095   14.396265
H   44.603336   27.166531    6.996369
H    2.382383   99.332176   51.053291
H   85.881821   73.046280   40.870392
H   47.158268   80.799019   66.247246
H   71.615746   29.962610   21.059883
H    4.833047   94.012032   69.410408
H   30.911116   13.582249   81.134140
H   18.144398   61.507423   85.238083
H   10.064119   36.010040   70.464546
H   46.153980   43.165623   74.786324
H   41.862137   49.199791   11.407245
H   32.334648    5.961219   81.236328
H   87.538300   11.925418   96.230827
H   92.132378   80.126999   23.858238
H   24.404749   42.071842   34.603058
H   66.340965   67.837410   43.051136
H   85.623421   94.204788    5.393224
