100
TIME:    2.890, STEP:  2890
H   21.883293   56.993584   96.500137
H   20.879707   61.437553   60.300312
H   29.431265   81.822464   89.414284
H   81.961685   13.581995   81.752869
H   69.285583    4.403745   87.345444
H   83.205574   98.077141   64.953178
H    1.506291   56.485382   16.454704
H   92.737991   38.623409   42.844135
H   82.586220    8.431688   18.171452
H   95.865746   57.879478   20.858538
H   31.434265   82.528061   61.369167
H   45.538483   68.551468   87.216026
H   59.428246   86.858246   37.886520
H   11.985194   96.168068   77.170784
H   15.653603   11.880990   11.852029
H   85.323364   58.959137   93.145851
H   91.710457   73.120850   36.476452
H   62.902893   54.159981   99.352234
H   90.279076   99.590591   15.619524
H   14.658371   44.441952   13.097223
H   92.780029   68.509491   78.802338
H   39.447464   47.920502   73.168091
H   47.158363   71.118034   49.664505
H   50.529205   71.342712   92.436714
H   26.220581   56.968758   57.884430
H   33.407566   41.496380   18.291990
H   12.870506   22.342680   57.315342
H   88.692162   91.335152   62.302212
H   74.010910   11.295588   20.560213
H   11.809190   19.312851   13.135426
H   29.794188   81.207153   80.731346
H   48.233498   72.662285   31.722267
H   73.925995   57.035988   58.150978
H    0.209962    8.871502   49.999496
H    8.933351   40.458374    0.710512
H   23.828800   11.508986   10.705483
H   56.986923   98.696762   36.185909
H   44.541519    6.058920   26.380939
H   23.084335   18.448664   64.249741
H   90.987778   41.631241   65.414589
H   37.740307   55.344624   10.433295
H   71.884422   41.563568   38.575302
H   36.134098   80.830414   10.221728
H   94.813599   61.209084   63.301895
H    5.969896   17.867519    3.415653
H   40.802624   18.039112   94.903847
H   64.312790   82.005402   53.201866
H   56.393757   25.138559   47.394737
H   49.505722   93.100212   29.190248
H   86.494164   74.731667   81.533966
H   43.324131   90.632355   83.888535
H   45.580799   95.568512   84.338768
H   68.828133   38.765930   35.022491
H    9.769512   60.057365   59.344025
H   10.686375   11.856040   24.929064
H   97.182266    9.494699   94.244385
H   79.464760    6.157010   30.850594
H   10.861064    3.962494   39.116776
H   18.205338   60.878399   89.616417
H   68.307419   49.923740   81.412117
H   42.004463   44.173000   89.068863
H   96.342857    1.042574   64.593231
H   70.263512   10.074438   35.294510
H   41.490654   57.515381   48.678959
H   47.032009   30.024193   64.702263
H   23.807777   98.602486   17.064121
H   55.698555   48.276356    6.590958
H   80.733620   82.819031    4.361312
H    0.938034   42.129356   78.977242
H   88.936340   93.501045   95.647614
H   30.262707   98.763680   27.481796
H   35.673584   55.611664   68.215118
H   18.558233   75.354301   87.646965
H   66.592644   66.495895   31.447258
H    1.510983   32.757854   20.479679
H   93.977654   92.794426    1.469890
H   29.347887   76.061417   42.160831
H   67.757782   61.751957   74.044754
H    0.100116   45.029888   49.925247
H   57.794319   51.559231   71.945145
H   67.435959   59.180035   52.717060
H   58.165009   63.101456   45.117775
H    0.649306   55.495789    5.158149
H   48.977146   59.462616   99.460693
H   11.610024   68.114502   67.599358
H   84.777771   15.208111   42.473660
H   60.171288   93.226372   61.349670
H    2.477869   73.914062   65.688423
H   15.658268   33.261040    4.555871
H   10.823317   90.372147   27.528820
H   42.293335   29.483879   94.493240
H   92.121811   12.850904   88.591270
H   70.709229   14.230476   42.492577
H   26.557110   88.532677   21.676899
H    6.623203   90.860657   82.496391
H   32.623764   81.608650   18.176941
H   33.207352   33.531582   70.982994
H   17.475454   40.844299    9.793861
H   71.040550   49.307949    2.969265
H   18.720537    4.472775   19.336390
