100
TIME:    1.912, STEP:  1912
H   88.021881   46.681137   97.395523
H   48.084511    8.409994   98.608696
H   12.620398   11.461154    0.890567
H   81.797531   53.876060   35.359776
H   78.045441   26.012745   13.862806
H   98.367439   99.136681   68.098289
H   52.761471   90.444649   39.973747
H   69.606865   54.013454   32.640541
H    6.627388    2.462309   79.733940
H   22.589853   43.836845   82.561974
H   22.405441   43.175861   55.575314
H   82.864838   19.529100   56.830635
H   21.640415   46.028801   35.091843
H   60.410484   99.182533    2.743176
H    3.756487   99.240021   58.865807
H   24.647766   44.498962   74.328873
H   70.345520    8.440620   47.437027
H   42.003098    1.719938   33.261032
H   75.042595   58.566010   64.092224
H   41.005096   65.207870   46.510475
H   50.815842   65.872620    5.349754
H   45.682926   46.623558   56.452484
H   60.216072   79.072044   77.645309
H   41.396019   59.613163   65.073669
H   61.199699   34.535011   50.669113
H   37.891956   70.635422    9.960856
H   97.204597   62.999767   37.907856
H   71.212173   45.685406   29.972410
H   52.745499   22.563517   66.791039
H   74.308083   43.518112   35.386654
H   91.314400   93.503784   58.113605
H   86.482117   99.688011   22.260628
H    5.035759   28.590839   70.045013
H   58.887901   98.499466   91.202164
H   33.246071   14.387753   41.155380
H   38.795971   34.681408   14.066911
H   63.183754   34.515480   59.123417
H   84.964592   23.959072   57.364864
H   64.765976   39.692436   58.871750
H   83.104134   33.187984   88.466446
H    4.578064   21.788908   87.390427
H   59.781525   97.668190   92.629166
H   27.710012   74.965637   39.579079
H   57.264961   44.816063   67.678391
H   90.803734   56.451183   19.725203
H   53.420101   99.385262   90.934303
H   56.269032   28.882364   43.961128
H   56.341526   15.069201   86.881676
H   20.920530   74.096947   68.205612
H   65.989830   59.851261   49.936069
H   43.398746   85.052025   73.576675
H   98.053246   86.319885   48.543476
H   48.541962   33.095154   91.823601
H   32.415310   76.012001   16.187799
H   88.545624   26.120768   16.630690
H   95.958572   10.522528   27.537811
H   17.464899   34.377235   37.834633
H   83.685638   96.322464   64.306961
H   41.071808   19.555223   64.699280
H   32.846378   74.751160    9.228200
H   80.310928   89.655342   65.320000
H   31.050640   10.147528    8.841496
H    3.921921   76.769081    2.387427
H   74.333801   52.195297   75.231453
H    8.211860    8.135318   73.622681
H   83.888161   47.221809   59.237713
H   34.165695   14.466231   59.373852
H   48.290916   26.886929   57.607258
H   52.197281   12.402191   40.315605
H   69.118469   44.311539   97.707001
H   61.317879   65.308327   39.216007
H   16.314249   88.069397   96.609032
H   82.325409   23.731319   12.721485
H   88.111748   28.384047   89.572716
H   54.355675   31.364248   46.340801
H   70.861778   30.113501   67.275047
H   40.552200   60.828560   24.863424
H   21.809566   25.699274   20.031994
H   53.201263   47.901218   39.010338
H    5.757259    4.821867   56.200661
H   48.298428   49.062176   94.264854
H   84.782639   56.714371   26.897547
H   38.775051   39.169922   12.008354
H   81.698738   75.773903   88.789825
H   59.231049   29.287392   62.405487
H    7.283916   79.286598   74.558296
H   94.852867   64.334946   14.714943
H   86.734589   52.215179   75.865974
H   95.361031   87.715416   12.556917
H   97.291519   30.610489   92.567635
H    2.269458   76.673233   73.839676
H   19.755922   39.306118   69.952324
H    7.961945   84.921982   66.832657
H   32.029865   29.209173   55.734009
H   23.534725   78.464600   60.022209
H   51.844955   20.228426   68.691620
H   10.837029   77.406319   27.228577
H   13.885352   32.517212   25.443718
H   17.629684   45.092175   84.891556
H   57.983017   29.591267   13.532711
