100
TIME:    3.403, STEP:  3403
H   87.191559    9.948879   96.030472
H    6.609107   89.249939   92.660263
H   38.249237   18.729378   83.394737
H   82.047791   92.445793   53.634113
H   64.690689   45.522961   73.435516
H   75.252571   97.521370   15.756239
H   74.618080   91.124062   56.571968
H   52.417206   83.004562   95.741280
H   69.975700   59.108826   85.880363
H   81.846230   65.245399   40.948479
H   83.716263    3.169758   11.955645
H   25.957344   94.265656   50.699532
H   26.797920   55.821182   86.898430
H   86.584572   94.586861   16.209415
H   21.894283   66.057632   87.193306
H   64.697220   14.090382   50.562843
H   50.458168    7.053556   83.176865
H   73.862144   29.212914   81.567566
H   98.271217   21.112764   42.644863
H    0.838462   33.549625   48.024681
H   62.337875   17.437622   64.876755
H   88.629272   48.601517   29.481369
H   40.309074   66.945839   34.987457
H    2.865929   77.495331   54.338017
H    7.873837   16.283981   61.671730
H   31.054537   26.211939   70.207085
H   68.635254    1.017352   67.493996
H   45.406338   15.280228   79.257530
H   85.165466   57.838669   96.311348
H   31.478600    6.615502   53.917145
H   49.985676   27.209402   40.144417
H   80.624763   58.487740   84.231316
H   10.059740   19.502537    4.366070
H   21.886280   61.858101   28.387383
H   96.181000    1.679296   31.947189
H   68.433662   51.809208    8.940385
H    6.191353   79.910141   76.608452
H   23.340034   96.671196   62.580410
H    1.429380    7.272581   14.536333
H   42.668751   93.605530    5.774797
H    2.681339   72.947327   22.518904
H   25.778923   64.588821   62.676971
H   40.552868   83.906723   47.275471
H   62.054428   69.805237   13.461596
H   61.469578   97.627655   47.314999
H   34.184254   27.823811   96.986031
H   68.320602    9.904115   58.129440
H   56.421154   30.420340   79.136299
H   64.499924   50.612373    8.726182
H   97.249504   82.535942   45.653522
H   43.284992   41.106125   89.297516
H   70.512207   47.966591   50.662197
H   79.466057   41.740479    5.227886
H   97.890190   51.685577   81.981903
H   69.841293   56.814774   29.291082
H   97.824142    8.954962   76.780655
H   11.988009   91.354378   79.641014
H   72.661858   55.516373   25.902615
H   58.663109   82.553467   50.233593
H   34.455780   89.353561   66.821175
H   74.364418   20.317524   49.070477
H   78.135490   96.267441   41.380112
H    5.089520   75.068413    0.116541
H   76.718071   60.305977   34.749462
H   67.395271   89.051979   12.475583
H   92.293617   73.099648   47.395721
H   14.539368   66.010590   31.359915
H   45.297356   12.158179   28.885679
H   26.506943    5.268440   46.803059
H   99.331604   19.303263   94.567383
H   13.971306   63.859703   21.327221
H   93.374496   38.586288    5.773028
H   85.109222   49.978870   74.496330
H   55.301037   34.030563    0.960019
H   26.244299   33.489750   59.368565
H    6.104499   25.672655   66.949585
H   75.925850   31.596912   51.233204
H   91.859451   28.206320    2.373674
H   24.699362   43.523045   55.651253
H   32.635902   23.618633   27.749619
H   77.471146   64.487259   83.378387
H   96.654694   66.451736    2.220307
H   33.106663   64.059357   54.018803
H   84.270844    3.360767   52.604683
H   86.631073   36.025105   17.869606
H   72.973511   34.051697   78.097794
H   94.433388   55.927101   85.811417
H   10.734198   32.841812   60.352570
H   26.305946    4.699032    0.358771
H   65.468597   69.268509   45.865822
H   63.287384   57.182583    5.326943
H   30.080572   51.429932   98.368141
H    3.593510   29.623877   82.163658
H   76.141090   19.649345   56.264435
H   97.753227   44.910084   94.284996
H   74.995422   61.350410   91.679390
H   92.488525   62.971783   41.480171
H   19.358030   45.212189    1.585472
H   46.602287   51.519291   60.000923
H   50.583431   91.307655   69.918671
