100
TIME:    6.029, STEP:  6029
H    9.605980   69.132164   93.626297
H   33.967995   31.566534   58.254406
H   83.396225    7.654692   52.573803
H   82.488556   84.254974    9.692266
H   41.169846   56.008362    2.235123
H   34.527378   94.676430   75.818901
H   36.990437   68.445732   61.928730
H   46.018784   10.187634   54.631855
H    5.423607    6.629605   20.582472
H   10.087217    2.951102   43.777470
H   39.452133    8.832468   59.004921
H   25.730515   25.893024   63.778206
H   59.343887   97.004280   25.949883
H   56.560661   86.492805   16.049168
H   53.832909   31.492561   60.965519
H   59.110977   84.410561   32.581757
H   39.290871   80.741936   22.232000
H   29.994276    1.467993   90.529335
H   39.170444   31.277346   80.992874
H   30.085434   77.779091   26.814936
H    6.507301   56.012081   93.606483
H   40.386444   52.087570    5.853220
H    5.246852   45.588753   59.853790
H   58.877758    8.952608   59.308384
H   13.953019    8.029251   81.065407
H   19.062738   48.427910   23.477749
H   42.191597   91.858292   19.590826
H   23.832558   37.853035   66.062088
H   42.265938   96.090332   72.178223
H   32.170963   41.622154   62.676743
H   53.335815   62.686672   32.383644
H   46.431919   85.937057   41.129311
H   95.031364   27.371634   40.936890
H   32.842033   21.200737   17.758989
H   30.907486    3.173017   91.852859
H   96.728622   57.645988    0.471096
H   58.057823   83.739868   83.527016
H   14.803701   48.621357   47.890621
H   90.585724   50.054497   60.057335
H   95.329239   47.768856   12.383196
H   23.211979   63.049980   84.386330
H   92.122604   65.245865   87.750572
H   63.172146   99.654068   36.955177
H   94.372314   13.839437   70.218834
H   33.684910   94.019363   72.028061
H    0.302192   77.910782    7.654673
H   88.836227   52.715775   83.337868
H   56.561398   57.466721   41.618259
H   41.262718   33.127968    3.973718
H   52.324131   22.496588   61.986595
H   43.087612   87.582199   16.982349
H   98.131310    4.292931   78.269722
H   33.931896   56.966919   52.714878
H   37.073441    8.832000   97.860374
H   60.757072   86.957703   51.628658
H    1.104872    6.191800   87.385406
H   78.463753   15.582774   29.395622
H   77.123932    7.522659   58.262436
H   65.770065   93.508644   48.635475
H   61.165642   91.196655   92.131493
H   40.014973   98.196304   44.327145
H   84.936928   71.824997   22.560379
H   83.369606   95.874550   20.043823
H   57.041267   74.605637   63.455761
H   71.625656   79.318436   57.023655
H   30.974880   42.553551    2.664943
H    3.850150   56.798588   58.142532
H   63.901482   62.342319   54.423664
H   57.388218   16.580833   82.104523
H   52.530159   51.384247   89.037781
H   30.585499   85.187653   89.826271
H   76.847977   51.434250   98.036606
H   13.889061   20.087776    7.162521
H   97.489693   67.842430   44.930412
H   52.852345   37.236256   58.437271
H   68.190239   93.974907   90.254364
H   14.348716    3.991991   97.673851
H   15.233714   56.499863   47.399704
H   50.624264   35.809650   84.947823
H    3.857604   80.591255    1.517517
H   28.850405   91.654434   40.327808
H   93.705750   83.569717   82.614952
H   99.221504    7.945044    4.114366
H   64.933937   28.073944   12.761601
H   58.767036   71.768608   63.308456
H   12.531521   30.508564   60.455276
H   69.818001   64.995369   11.029501
H   52.991905   22.626627   33.066429
H   80.801620   58.487007   78.881355
H   33.293858   61.228535   39.739265
H   70.754173   98.980972   60.783245
H   24.383844   48.917511   48.401367
H   71.924026    8.418202   85.236404
H   29.947289   78.945625   33.325150
H   52.354393    9.687901   54.625797
H   91.892242   57.652802   56.043274
H   84.048882   13.672482   90.455795
H   26.639963   84.773224   57.847519
H   21.505219   62.838947   40.045540
H   13.696266   23.921341   16.947445
