100
TIME:    8.827, STEP:  8827
H   20.388100   12.543577   91.064651
H   56.695908   83.186401   34.675335
H   31.498926    8.953925   19.724689
H   82.958191   68.977959   56.325905
H   16.101645   80.280228   26.368698
H   91.135132   91.645149   52.913849
H   90.347145   57.380424   80.736061
H   26.101501   52.248852   97.727318
H   36.643364   37.612686   44.459332
H   33.663399   43.127644   53.333473
H   79.188995   21.415325   89.488106
H   18.938469   66.142509   64.613518
H   80.881104   27.701019   47.904037
H   18.021288   77.868599   28.978687
H   87.818733   81.561684   26.410538
H   46.609146   39.687340    0.322336
H   14.292295   65.806862   76.944984
H   89.822922   65.317146   93.539627
H   82.748947   48.658024   28.402416
H   54.698818   18.362864   17.315760
H   40.470024   77.461884   17.664705
H    8.633431   55.801956   67.577698
H   67.889030   22.837103   79.799164
H   98.901962   42.424774   51.504940
H   13.880673   86.134949    1.728511
H    5.986521   65.883530   60.222912
H    0.916461   75.550186   75.110214
H   87.745087   68.454224   58.548233
H    3.105216   49.946316   39.914360
H   39.458778   72.371109   85.110046
H   63.455883   13.590231   11.014931
H   23.099323    8.632841   82.104485
H   92.118546   22.656853   93.002823
H   51.064148   64.780823   99.884819
H   61.276085   91.342262   62.095905
H   39.953190   76.800705   91.675880
H   26.423485   81.270760    3.998481
H   99.156990   97.412437   45.337456
H   72.482872   89.092918   88.910797
H   31.789038   85.829216   32.524246
H   31.988008   59.055832   50.304775
H   56.322433   76.218246   30.595303
H   87.252350   16.438454   39.056126
H   15.711056   60.808952   43.791195
H   90.979019   83.631111   11.461421
H   64.183098   31.272465   19.021975
H   10.702697    4.880018   10.198496
H   56.726376   86.285233   14.741909
H   23.052895    1.398964   92.360931
H   11.062653   65.086571   66.350060
H   42.895489   17.453640   46.478531
H   34.121761   44.659069   94.598244
H   91.964226   73.190674   90.214218
H   72.276031   63.188522   21.327103
H   37.976418   32.160667   75.420364
H    4.589777    3.248576   92.134872
H   55.844215   34.847282   95.508507
H   68.779236   43.286247   86.191185
H   86.444374   11.740651   33.836586
H   76.527245    6.259899   12.549706
H   16.514330   68.073242   26.173878
H   85.630424   45.781601   95.960396
H   73.326584    4.944018   28.176575
H   49.174686   89.847427   87.485992
H   82.682404   55.846935   17.588785
H   59.092323    3.457292   68.105492
H   79.361557   53.532856   93.229050
H   70.624451   22.363197   88.184250
H   96.837433   15.534401    6.617786
H    9.296782   92.002274   83.121689
H   41.730831   94.810234   56.268715
H   46.384918   58.509178    3.062031
H   31.454803   81.690819   35.425755
H   35.891865   90.759132   78.683479
H   87.677048   41.312511   70.570740
H   34.333420   73.301750    1.984883
H   68.462723   61.802174   47.291695
H   46.683361   73.550056    1.930552
H   84.800011   27.591038   16.165560
H   66.640984   28.171263   60.467278
H   83.618553   20.601725    7.560895
H    3.667693    1.716607   48.536743
H   76.202187   54.736851   70.582619
H   57.431671   67.504738   57.206402
H   22.529480   96.739426   92.075089
H   48.139744   33.283638   54.756912
H   56.690220   61.557350   44.448662
H   97.991478   98.728859    4.055604
H   38.871098    2.699508   55.997322
H   85.913528   46.110588   39.760620
H   85.259880   50.061939   19.872215
H   31.407511   59.354080    1.719402
H   51.281178   92.368919    1.610043
H    0.361146   48.696766   21.989119
H    3.976026   59.061665   18.921278
H   22.995636   47.162964   11.523020
H   61.956535   74.242226   29.540005
H   21.239161   23.220718    1.677679
H   88.215233   74.919319    5.682911
H   87.490417   52.117260   47.407650
