100
TIME:    4.079, STEP:  4079
H   41.475739   47.956207   95.411575
H   87.823891   25.898432   35.299568
H   49.869019   67.363625   75.462547
H   82.161255   64.595451   16.578760
H   58.635818   99.707344   55.105865
H   64.772591   96.789009   82.703300
H   39.189869   36.771488    9.436120
H   99.284935   41.486912   33.673756
H   53.358330   94.114075   43.328724
H   63.372169   74.951759   67.421112
H   20.836380   30.369755   46.839275
H    0.154557   28.149637    2.581844
H   83.777756   14.924877   19.712234
H   53.112587   92.503242   67.654816
H   30.117870    5.674895   54.699764
H   37.517349   54.964836   94.448181
H   96.098122   51.763927   44.715813
H   88.303062   96.338722   58.130726
H    8.800152   49.473694   78.259262
H   82.622520   19.194082   94.049950
H   22.223068   50.140598   46.531387
H   53.438049   49.498917   71.913757
H   31.283501   61.447975   15.644784
H   40.058220   85.602875    4.130294
H   83.696075   62.675529   66.664162
H   27.952318    6.070011    6.846204
H   10.341730   72.919327   80.903419
H   88.367737   46.833633    1.599968
H   99.864258   19.170822   64.355659
H   57.399994   89.884178    7.657696
H   76.590630   87.827385   86.661446
H   23.307600   39.812538   21.650566
H   57.677639   70.043312   65.265488
H   50.449265   99.906830   99.910255
H   79.377960   50.579033   73.110107
H   27.217337    4.911974    6.607015
H   71.027481   55.154282   29.874441
H   95.400444   84.303581   10.285921
H   72.898041   92.544121   49.026649
H   78.996803   30.320686   58.962521
H   56.480835   96.145630   38.445171
H   65.023849   94.925064   94.436676
H   46.375652   87.960495   96.104637
H   18.887182   81.131042   79.557373
H    2.833010   70.953217    5.161422
H   25.462971   40.717487   99.729805
H   73.601852   46.668114   64.622200
H   56.457256   37.382339   20.963295
H   84.263351   94.627472   81.761719
H   11.426379   92.819939   98.374733
H   43.233418   75.842247   96.425140
H    3.365034   85.238724    6.282187
H   93.484062   45.660156   65.968849
H   82.232109   40.653748   11.811706
H   16.017929   16.061792   35.040447
H   98.669968    8.243231   53.768021
H   54.841557   71.848824   43.934349
H   22.324944   91.676155    8.488972
H   11.979376   11.116211   98.335716
H   89.847183   41.314014   47.594124
H   17.006937   88.879906   96.365547
H   54.142937   89.975327   10.791373
H   50.984341   28.939823   53.761192
H   23.136679   63.983253   16.394024
H   94.224434   35.060810   75.428474
H   50.765663   39.493568   87.366119
H   60.302780   89.384247   63.996441
H   98.601173   50.819901   61.202389
H   60.200699   56.695404    4.403845
H   13.027304   53.305504   93.143921
H   92.505074   17.864586   13.217098
H   37.634995   16.151291   55.267910
H   41.033478   16.542988   57.165192
H   40.416576   91.252205   60.793633
H   58.834812   34.454197   10.613635
H   22.086779   68.999596   21.464920
H   37.301605   73.006638   63.188221
H   23.619167   84.005058   39.708214
H   57.114067   41.537418   63.196632
H   99.483215   86.802925   69.511742
H   90.694901   71.480789   23.780977
H   47.377693   70.866531   45.694336
H   75.876137   75.343903   18.404583
H   30.779207   61.207954   90.863571
H   53.716095   93.740227   52.339081
H   57.416393   58.884918   25.041504
H   39.581917    6.776405   18.046125
H   21.613882   78.719719   53.322937
H   40.335312   67.060005   94.829842
H    5.699708   41.455246   70.029861
H   90.952057   93.686195   19.602823
H   80.101120    2.263422   11.250059
H   46.925255   49.908211   34.439861
H   41.478947   60.655617    1.845155
H   86.066399   84.357628    9.818479
H   30.830292   34.655342   56.763313
H   38.830200    1.766216    2.601650
H   21.838774   50.967926   90.765648
H   14.399040   54.433262    3.377052
H   92.573906   73.957924    4.796609
