100
TIME:    7.997, STEP:  7997
H   76.517815   88.658257   91.824539
H   79.619186   38.210087   82.342056
H   17.232035   49.239868   29.467083
H   82.818878    3.173203    1.819091
H   23.539045   13.752065   48.873245
H    4.004073   92.544350   70.716469
H   33.847683    1.332396   15.828983
H   91.337860   80.443779   73.936378
H   57.046349   17.414001   96.703979
H   56.333382   31.210070   20.834522
H   56.393570   88.019379   69.437210
H   50.619453   24.538662   23.693615
H   33.807671   77.937683   30.387384
H   59.117470   80.426888   65.816475
H   77.737556   55.701370   66.324005
H   79.980881   12.282206   69.220001
H   81.035805   10.910952    1.386814
H   72.077454    5.705056   22.310883
H   69.818192   13.836171   84.674881
H   77.062210   35.988377   60.805550
H   89.723412   60.091557   40.191059
H   29.060518   54.700119   38.259842
H   78.970726   29.584272    3.545896
H   76.021866   32.495575   13.146701
H   43.565132   51.958893   95.599586
H    9.900860   90.351913   38.329086
H   72.489441   10.050326   58.643925
H   57.777260   29.712622   31.110056
H   85.057686   74.642471   79.149895
H    7.634156   92.913406   19.127083
H   30.787161   39.162140   76.681892
H   70.692772   31.562962   58.941719
H   33.654568   83.384056   18.229872
H   15.993886   40.845314   34.849564
H   81.932365   54.184898   11.595175
H   67.803253   11.788209   94.284828
H   46.815083   11.667437   38.597561
H   33.461990   12.601570   86.767570
H    7.514850    7.177008   69.343666
H    9.965790   63.531929   67.222961
H   88.713623   30.579039   30.750334
H   26.270454   72.963394   88.221306
H   80.109406   11.459467   79.104683
H   68.706970   46.871666   62.638683
H   62.974236   16.372814   40.435211
H   74.897514   15.444636   15.649973
H    4.213793   59.742317    2.227727
H   56.675716   77.736496   63.386593
H   98.792915   70.137764   25.469864
H   93.638916   52.452892   24.381809
H   42.952480   97.584373   37.727158
H   93.782349   21.676233   49.083679
H   74.752769   68.378052   38.418526
H   91.501190   76.727570   84.702347
H    4.061468   59.424606   68.366074
H    3.556013    4.121655   20.390045
H    3.227946   58.796410   16.568840
H   30.582273   21.669466    7.569989
H   20.980587   76.670601   97.556168
H   31.299324   42.464626   36.156883
H   64.157547    6.674719   90.887276
H   15.088783   53.507126   33.515106
H   16.976471   61.582184   85.092163
H   92.179314   85.326096   10.019048
H   49.738533   22.136881   40.295074
H   10.080189   44.718712   19.029408
H   45.954498   24.839973   53.157635
H   27.958412   74.894157   48.505447
H   55.472908   75.172920   58.676140
H   92.439659   50.311848   84.882095
H   68.091621   51.286575   66.223244
H   14.734179   86.067772   42.222836
H   85.571472   22.748182   56.708942
H   54.160831   43.289303   27.998518
H   47.694290   40.090359    7.639589
H   14.709426   20.105095   57.831673
H   93.080772   33.639969   32.568871
H    7.693146   27.818707   56.085323
H   44.997581   30.029011    6.902817
H    7.345238   73.384850   31.972420
H   67.369621   12.014993   57.952682
H   41.384758   96.332306   17.975506
H   23.702253   40.856236   91.536591
H    0.330695   96.479492   33.014790
H   62.942841   48.659611   72.533577
H   67.243515    2.796176   97.119019
H    1.256333   21.905434    4.871115
H   84.642784   65.147339   12.661522
H   21.645073   48.911781   62.785652
H   59.297413   80.258194   10.091316
H   51.292896    5.247182    2.343883
H   69.995918   96.930603   85.901711
H   98.076736   67.469933   37.424866
H   20.145346   98.341637   66.024208
H   18.328182   33.407196   99.849915
H   54.441010   79.939453   54.393517
H   27.837839   26.610291   77.273781
H   22.841257   82.150703   18.341383
H   27.754234   71.335182   75.205284
H   35.935482   73.415909   27.363689
