100
TIME:    9.253, STEP:  9253
H   91.579742   73.477455   90.674637
H   44.930466    6.269535   61.537594
H   38.821453   39.601357   14.724169
H   83.029694   51.427299   32.973778
H   12.284376   14.425774   14.819305
H   84.530884   91.183632   95.101288
H   68.018806   86.144753   14.049831
H   92.618744   89.104202   58.614899
H   26.171471   96.653625   17.643446
H   22.026567   49.244373   70.013100
H   39.563507   38.555466   48.452065
H    2.678108   87.495811   34.289879
H   53.716583    1.917357    5.570206
H   96.928772   76.555550   61.398655
H   92.992928   43.509254    5.924977
H   29.480762    2.427644   64.960999
H   80.035744   93.985420   15.725447
H   98.936264   44.587868   78.771072
H   89.385696   66.529984   50.844509
H   43.222637    9.316149   46.319847
H   15.190548   35.052071    6.101879
H   49.474468   56.367477   31.299835
H   62.201317   19.374098   67.611206
H   59.321590   47.520966   19.865625
H   98.644882   52.352058    4.873142
H    3.977130   53.325058   20.133139
H   64.183540   57.842388   83.560532
H   51.799843   88.338470   72.629021
H   12.368682   88.596764   19.777592
H   55.793892   61.827713   18.975487
H   80.220116   51.789646   77.311188
H   49.997334   96.862961   42.667503
H   22.125633   91.489273   31.380270
H   69.063324   25.740356   81.937645
H   50.674187   59.088051   88.012619
H   76.985077   10.166974   90.336830
H   67.281250   65.670174   37.565449
H   81.547829   89.618645   75.399071
H   54.501476   79.810570   47.627747
H   91.664337   45.948746   66.042557
H    2.874969   73.673782   60.341152
H   20.421585   77.888809   52.341976
H   90.918488   18.994675   69.825645
H   88.512245   67.960670   85.443184
H   54.026009   66.827980   47.917225
H   58.687035   39.397625   20.752665
H   14.033259   28.048513   14.289587
H   56.752377   90.672897   41.100361
H   35.504112   66.115761   75.369293
H   20.004187   71.573814   36.562946
H   42.866238   76.325905   50.970200
H   54.825039    5.128911   66.634193
H    0.798266   75.660767   65.474289
H   62.409187   56.236511   40.124886
H    4.056852   69.494339   79.041000
H    5.120359    2.800466   77.632828
H   82.851746   22.555321   36.024834
H   37.058044    3.055117   75.218773
H   20.043240   29.741453    1.132143
H   48.415493   39.004856    0.433264
H   43.388653   48.263081   92.961555
H   70.510857   41.816452   76.687172
H    2.246318   75.874779   98.964478
H   78.427429   92.168015   75.922058
H   99.589539   21.821407   57.260365
H   32.922340   82.279625   93.293938
H   45.183273   68.260101   13.796791
H   41.197845   46.726753    8.549515
H   18.069506   84.924774   79.901154
H   17.948608   13.399546   82.218155
H   28.201031   65.825645   51.159523
H   11.305501   44.364647   34.287182
H    3.678963   60.617550   24.502094
H   26.515263   63.796146   53.371529
H    8.197679   41.939785    2.870399
H   44.405548    0.602814   73.318954
H    7.152399   24.929539   54.848228
H   66.694801   45.696510   25.458290
H    5.229590   26.339741   20.920488
H   45.749199    4.964100   23.766899
H   91.958366   25.008890   33.022621
H   35.633827    4.482055   12.898283
H    3.145925   61.861118   11.151456
H   86.740547    3.958200   18.299191
H    1.787201   70.088425   50.779037
H   38.334126   48.932976   84.339523
H   85.141792   30.583687   64.761925
H    4.842358   64.641579   99.639084
H   47.711430   78.980232   52.513191
H   48.249752   28.582680   54.987442
H    2.693631   73.064331   28.868553
H   62.927197   91.393784    9.835214
H   78.588699    5.149656   34.553276
H   41.531616   74.541733   50.713131
H   96.610565   20.901981   28.709021
H   58.181458   30.340494   89.519272
H   28.142452   98.689644    5.039324
H   20.416880   44.298435   93.123680
H   67.921471   76.758888   70.002571
H   13.951628   41.187099    6.368549
