100
TIME:    5.373, STEP:  5373
H   53.968178   29.289886   94.226883
H   52.085670   96.017838   16.889965
H   72.115219   60.459030   60.276318
H   82.378448   11.282375   45.651016
H   47.045578    3.427119   20.020912
H   44.702305   95.387123   10.852144
H   71.370049   24.148014   10.628678
H   97.579086   53.433933   14.862325
H   21.549339   69.701324   61.877068
H   28.009661   93.531685   18.089819
H    0.471664   82.436981   22.195278
H   50.769943   93.011543   10.473284
H    1.204718   36.675011   91.133476
H   89.042351   88.514778   66.128883
H   45.855125   90.089706   92.496765
H   85.486710   41.786880   87.034882
H   92.042336   37.352673   62.513733
H   15.965592   33.386524   13.270079
H   28.954731    3.755592   46.431698
H   47.757675   91.712685   82.151466
H   45.435280   21.317986   11.412235
H   77.495087   51.216721   61.717697
H   14.006452   50.923958   78.622101
H   19.828476    1.104952    8.026921
H   37.414093   60.055008   76.220680
H   22.053156   67.820847   85.164993
H   98.758713   19.127239    6.573964
H   79.183296    7.233162   44.376404
H   28.002022   36.572269    3.188272
H    7.018464   57.857994   10.526894
H   27.516060    3.863344   84.284279
H    5.011796    4.063756    1.858545
H   48.824642   75.368217   81.839226
H    5.123057   81.319389   45.394661
H   47.213562   52.762527   51.905403
H   39.702991    6.264822    2.534142
H   95.139862    7.764061   31.836590
H   41.915661   60.628071    1.600157
H   18.275455   64.348442   23.628489
H   57.116169    9.180655   60.771923
H   68.045227   40.543022   68.931252
H   48.725853   53.001961   55.224087
H   57.521633   95.720230   89.571480
H   36.259235    2.828402    6.079935
H   90.587761   19.901505   15.892573
H    8.767488   65.398575    4.989573
H   83.711227   17.039921   77.041725
H   56.526363   50.710129    1.028748
H   22.089012   87.458130   30.142323
H   38.565708   12.511847    7.870359
H   43.134693   50.915192   10.067031
H   66.250206   65.166122   21.334122
H   20.323620   53.163208   90.813530
H   52.263260   19.536606   68.912132
H   12.988560   29.468718   46.048214
H    0.287766    6.881848    9.717209
H   36.876442   34.511269   67.004448
H   25.970661   69.474083   75.158920
H   14.034374   65.791603   98.994606
H    4.457159   40.775158   10.789680
H   98.633148   28.703056   95.475121
H    8.218920   77.930954   52.244339
H   38.833332   40.639572   65.027710
H   11.993426   71.032150   81.263290
H   45.586716   31.711163   95.932747
H   71.274132   75.165367   63.877022
H   56.482788   34.121464   26.471195
H    9.215945   24.825239   23.063070
H   24.691320   63.716820   23.247025
H   39.242195   18.388088   90.419128
H   51.415993   29.821640   97.693947
H   30.939014   73.205490   50.008293
H   56.661850   52.534431   23.983932
H   11.929737    9.362263   83.908440
H   21.225637   36.300343    8.707584
H   52.681458   51.932457   34.394978
H   54.789165   60.851231   86.072533
H   84.413635   99.392586   11.169526
H   19.168575   37.736530   77.630684
H   36.024750   16.325562   58.032471
H   16.012880   84.867813    1.121076
H   44.469696   79.315567   37.489670
H   57.730270   96.974915   41.641369
H   19.804125   71.938278   72.675842
H   90.708199   12.799842   26.900200
H   27.631252    6.412555   14.900804
H   26.005255   12.692062   79.748856
H   42.441612   75.121338   39.868065
H   67.188339   95.012642   84.246590
H   91.293091   88.215378   16.289713
H   43.907982   63.556477   46.929729
H   75.846489   99.580688   35.904175
H   29.873003   88.736916   34.506916
H   66.546852   39.146801   89.092339
H   63.695457   68.449852   39.551090
H   37.709381   83.558075   89.926331
H   36.118523   76.026207   28.183136
H   26.587416   61.985565   70.053276
H   52.755707   60.011189   94.991325
H   72.947800   40.753963   80.142822
