200
TIME:    0.402, STEP:   402
H   14.449145   61.937351   18.109676
H   29.408197   35.243179   96.473732
H   14.742253   76.228867   53.327568
H   23.303295   78.867256   40.263435
H   13.490148   87.835114   51.329330
H   84.348450   48.418060   60.754318
H    5.706313   55.189186   52.786999
H    6.518956   95.881927   19.322018
H   94.007500   85.077560   43.767429
H    5.158513   72.629662   89.682533
H   17.840273   98.054878   98.081024
H   31.447693   46.346855   20.461233
H   15.150264   92.384315   54.652092
H   96.746544   53.890423   50.072140
H   11.800477   73.191673   42.579994
H   24.578396   19.291553   50.828323
H   91.828354   15.305759    7.566696
H   32.715248   90.954834   40.636250
H   70.415451   23.836967   44.868622
H   90.571648   77.479942   31.190800
H   60.029243   84.845154   18.418522
H   86.422493   55.006538   64.331848
H   90.154060   61.363586   45.249107
H   12.039571   89.536156   91.078102
H   10.287839   19.219419   39.629757
H   18.526991   69.525726    1.606070
H    2.032892   62.047337   55.595383
H   98.228058   76.812279    1.157537
H   17.891720   51.605659   37.389763
H   85.728821   25.104116   93.022049
H   13.149988   58.217381   16.392876
H   28.980137   67.303207   97.591576
H   23.209007   12.471415   75.157928
H   91.064949   63.754662   41.121887
H   40.214237   83.107040   32.986835
H   27.769485   46.228279   81.334129
H   90.914154   70.932465   87.171120
H   24.901821   48.945843    7.883610
H   47.074600   40.599628   48.032608
H   88.529144   39.022305   57.368256
H   80.552513   97.656189    6.901411
H   21.402727   39.709846   35.027573
H   73.784988   84.060448   56.343708
H   36.920364   71.102028   24.542215
H   34.312080   81.237762   50.210014
H   38.780060    9.622477   44.449741
H   83.026978   18.275452   99.731163
H   86.171867   65.548134   41.823807
H   93.345459   22.604488   61.283131
H   56.320118   18.532576   98.858688
H   74.354507   68.445656   21.448528
H   14.945356   38.486309   67.024666
H   56.545273   89.786140   10.047593
H   19.995541   85.602371   84.102165
H   70.341782   72.782104   85.534111
H    3.228930   68.359138   83.952972
H    4.968157   17.358498   47.916828
H   69.178574   62.345371    2.379540
H   24.762800   77.606918   11.044639
H   39.356472   95.079506   63.999496
H   49.894852   12.215742   37.503387
H   92.847466   16.808649   50.307705
H   75.910370   28.562414   79.419495
H   28.051144   65.383461    7.284470
H   73.952545   78.494141   24.554049
H   32.385002   22.854952   35.775223
H   80.123878   19.744862   89.182106
H   96.434227   91.818245   90.478874
H   22.284849    8.042445   59.929344
H   44.304432   44.453541   50.973942
H   58.394096   79.394058   77.614624
H   27.587524   19.563635   43.630833
H   82.635391   28.463787   94.071121
H   13.143075    5.403829   65.288612
H   81.117630    3.493983   59.995483
H   57.408501   13.357261   61.818871
H   94.742859   35.981071   69.854103
H   20.554955    8.919870   42.427956
H   12.762196   36.910923   31.350460
H   65.835068   89.763458   86.578888
H   50.243755   27.364084   98.728699
H   33.759693   65.677086   82.849113
H   10.367673   15.443305   85.539803
H   19.391256   67.156929   99.131561
H   33.139366    1.036924   53.191216
H   29.231312   80.106201   24.410500
H   43.115875    3.121681    2.142718
H   73.984291   12.514923   17.552475
H   70.644058   72.451569   77.754272
H   22.632721   93.308434   53.083248
H   34.451828   36.291286   80.033920
H   82.926994   89.956818    1.902663
H   54.955410   15.035038   91.115982
H   52.763500   88.613503   73.552895
H   29.229839   54.734840   74.686897
H   62.563271   31.331284   21.444757
H   81.503136    8.675940    5.306153
H    2.441214   30.956055   50.127399
H   33.347099   68.155212   53.455353
H   70.021187    0.559899   27.289957
H   17.094023   84.905518   76.568153
H   96.596382   79.107483   64.971001
H   26.537504   31.249655   32.766712
H   29.660299   68.238586   96.595551
H   25.123991   25.343788   30.339756
H   93.836510   18.841406   36.306290
H   73.332390   32.108311   55.505295
H   63.796902   40.494354   12.477354
H   76.913551   38.044754    6.966114
H    9.570750   25.801668    6.330134
H   49.325958   94.659019    0.909830
H   92.498825   67.419128   92.356453
H   54.280373   82.154556   90.411644
H   62.675407   15.904827   70.776428
H   58.444160   88.714447   21.092487
H    7.427178    1.058036   86.242630
H   25.914341   10.723832   86.068649
H   39.949200   34.970287   30.740288
H   25.014650   63.795780   75.533096
H   75.057823   49.908138   55.385994
H   42.245369   22.835957   82.211372
H   11.299114   23.642368   52.953415
H   36.142036   14.990147   28.834879
H    1.690480   61.489059   10.770977
H   72.068932    4.941031   87.455238
H   53.657436   66.784821   22.403475
H   91.359871   49.946335   64.798325
H   71.885170   88.840538   36.370785
H   94.461327   46.619648   81.198448
H   75.597260   23.381504   69.261513
H   55.148430   79.401398    9.602276
H   75.481880   87.658127   13.147344
H   91.908760   90.476463   98.580215
H   92.977036   17.156590   51.701290
H   12.429057   98.440918   48.972687
H   58.043335    1.418938   81.294960
H   69.160919   86.977333   63.403313
H   92.600151   59.162777   80.638695
H   50.547638   46.599152   71.511772
H   43.535698    1.320209   90.956116
H   58.637814   58.304649   20.142975
H   49.780502   45.933044   50.023373
H   49.797775   59.742748   93.920059
H   50.289894   20.663527   80.808937
H   47.916698   64.394348   54.365879
H   51.875839   64.766983   22.087418
H   48.562737   96.068352   46.121944
H   38.228935   67.388435   67.895531
H   69.516083   58.028549   96.334000
H   14.625984   90.443459   83.934540
H   70.510078   64.061203   50.121212
H   40.606789    2.627242   43.075615
H   83.701523   25.781139   97.777588
H   14.192345    4.861214   71.949242
H   20.036449   58.157322   63.684296
H   68.311226   43.930592   59.044975
H   61.007000   65.741760   82.673996
H   48.349281   34.060669   13.519463
H    4.967391    1.123921   96.597099
H   61.863430   50.333893   84.457962
H   55.547249   77.827888   79.108559
H   35.997997   22.216774   34.140541
H   72.192650   27.506844   37.164692
H   17.221079   24.938732   64.267517
H   57.403053   27.585302   11.416309
H   14.704806   59.284718   61.416256
H   72.110268   94.946724   53.939068
H   23.773731   38.303223   54.711628
H   96.274208   27.643381   36.474403
H   33.865860    9.237193   88.579071
H   76.270142    7.560375   35.962479
H   40.566505   59.429977   57.955589
H   40.803017   70.493301   85.865799
H   69.231094   70.662910   77.997833
H   63.908386   93.817886   91.614189
H    5.909028   48.535912   23.442167
H   33.753521   57.981796   93.684746
H    3.165765    9.355354   66.951675
H   71.458626   17.613588   67.240112
H   78.594307   56.192863   88.670296
H   78.460159   90.994728   37.952705
H   22.495241   30.303799   75.530243
H   58.176868   89.997665    9.276316
H   55.008690   25.520206   83.150093
H   87.617920   81.307938   77.729416
H    2.651846   37.590744   84.764992
H   36.992920    1.749632    2.854657
H   82.638199   74.086617   31.194977
H    1.926975   61.895824   68.394882
H   52.559486   57.392071   67.749771
H   55.559246   25.664597   78.144600
H   46.324875   89.331696   22.560949
H    7.698897   21.378063   61.517189
H   32.273212   69.996445   36.578075
H   79.335251   47.019398   21.286366
H   75.723648   10.780962   27.346893
H   10.538112   89.976738    8.934674
H   24.201403   94.186501   42.397980
H    9.753003   12.065184   70.771858
H    6.318099   29.504311   95.498108
