100
TIME:    7.842, STEP:  7842
H   86.999992    2.872491   91.966446
H   83.900040   29.810390   72.569412
H   14.567736   38.088364   31.286446
H   82.792862    9.559597   10.315372
H   24.927958    1.328209   53.076050
H    6.407914   92.712273   55.366226
H   41.970661   90.866638    3.707781
H    3.520561   67.033592   88.167259
H   60.856544   32.317154    6.460529
H   60.566933   28.984499   14.765053
H   70.811295   81.782578   84.368164
H   56.535782   16.769268   34.726418
H   43.691475   87.320084   45.790241
H   66.792259   80.904640   54.020657
H   75.854927   69.546738   73.778839
H   86.212952   25.839111   82.086212
H   93.499947    0.659182   87.276550
H   68.763931   13.247149   27.683826
H   67.403412    7.333310   76.508148
H   81.238998   39.279430   50.252419
H   98.921333   75.521851   44.397411
H   14.200517   54.494354   51.459534
H   81.040199   30.844286    7.980777
H   90.423035   30.641329   24.658367
H   49.108955   64.251541   94.454872
H   10.631680   94.921310   52.915916
H   85.854691   16.493757   55.568096
H   70.855766   22.477743   25.986631
H   81.687401   60.579517   86.477013
H    1.690953   96.749619    6.805425
H   24.686945   25.263271   88.945000
H   60.905941   35.844997   73.290855
H   22.736528   94.724770    4.266247
H    9.444594   55.050179   41.379639
H   85.789864   65.920586    2.164509
H   54.329212   99.647491   94.772041
H   31.949165   17.344297   26.384123
H   39.867897   15.438227   75.828926
H   14.057649   10.553797   84.364494
H   24.565037   78.041931   55.027573
H   99.306961   25.261084   27.098600
H   39.332970   72.355560   80.307640
H   78.775482   10.529682   67.908241
H   78.604965   44.270042   47.484226
H   76.419807   22.487812   27.171444
H   76.898399   12.488837   15.020262
H    3.002117   51.313057    0.739110
H   56.666256   76.140045   53.796062
H   94.261360   82.975594   31.652859
H   90.384521   50.093693   35.219521
H   42.963123   12.548929   36.092865
H   86.249466   36.059238   59.258392
H   71.538582   67.479309   47.420143
H   95.091431   79.255875   77.862442
H   16.403168   45.840584   67.048706
H    3.362961    4.284700   25.666611
H   93.401215   63.268837    1.826820
H   42.123947   36.307564   11.562594
H    8.755913   70.121605    9.455521
H   41.527252   30.550373   40.565453
H   54.380169   13.882694    2.972772
H   20.590034   54.949844   40.528847
H    6.453473   72.158966   95.720978
H   81.536308   84.481750   14.227469
H   43.585693   34.516590   25.860544
H   19.601540   52.424248    9.864400
H   58.390259   19.481220   45.674419
H   38.665276   66.029716   41.095551
H   47.747269   86.310234   68.397400
H   89.291695   42.527081   85.210846
H   73.013420   61.832611   68.082222
H   27.498070   91.214256   30.861959
H   95.677597   30.415285   60.683514
H   57.572506   53.098606   37.208008
H   40.227631   39.862125   95.887512
H   11.044980   10.171032   68.261116
H   79.003624   47.056068   29.819895
H    0.411705   37.953213   47.524799
H   37.565216   30.484295    5.173033
H   14.946401   81.828300   45.325844
H   64.335182   10.411447   48.688538
H   29.754204   95.327133   30.942825
H   13.898271   38.264072   76.775925
H   89.666420   83.215942   47.171169
H   70.489914   58.355389   87.559135
H   70.810104   97.103058   86.355392
H   90.904228   33.175194   97.480080
H   82.149956   77.549988   14.268616
H   18.427929   57.542076   64.053352
H   73.001282   86.634537    4.550653
H   44.949665   96.877632   99.070480
H   58.527485   85.272964   82.947685
H   88.140900   62.819820   25.438478
H    5.165344   88.937950   55.572781
H   21.008446   47.291588   96.288055
H   41.638657   86.060364   62.399422
H   40.140953   17.715694   86.187889
H   23.140444   74.480644   21.453279
H   35.138115   70.665855   88.187386
H   26.308290   77.394028   42.295826
