200
TIME:    0.556, STEP:   556
H   19.181211   61.426258   20.742981
H   30.780806   37.491402    2.725608
H   11.514583   82.969421   60.912895
H   28.494415   80.667244   36.236374
H   11.855090   91.738220   49.115181
H   79.338562   44.238258   56.196190
H    7.937499   55.079918   55.767788
H    9.970010    2.531805   13.855729
H    0.261621   82.768829   40.010601
H   99.737442   70.472496   83.608162
H   23.207926    1.344604    2.947564
H   32.084503   50.457336   27.798944
H   18.930004   97.495247   48.340385
H   89.467873   54.540157   57.492977
H    4.365357   74.377174   42.201080
H   20.089588   12.946362   47.506218
H   99.072952   22.518341    0.089756
H   29.058525   98.358047   37.894558
H   75.539307   18.261646   47.135643
H   91.061592   75.365074   25.220997
H   61.877403   92.532700   11.363184
H   82.994057   60.892921   58.397293
H   85.542473   60.243881   41.553963
H   15.301461   90.940193   90.595207
H   16.981522   25.413046   34.134624
H   18.399511   76.360275   96.519814
H    5.015247   65.137398   61.787247
H    1.762392   83.165108    1.562758
H   24.377903   46.924751   36.488007
H   78.769730   29.229578   87.694931
H   12.948929   64.651283   16.581158
H   26.179699   70.912582    1.383132
H   19.488014   15.785149   77.038986
H   85.968117   63.922676   43.813644
H   32.823948   76.743637   31.815386
H   22.739037   42.717010   83.100044
H   95.334229   67.608597   88.327248
H   17.284477   52.929432    0.959457
H   41.375031   35.085110   51.455757
H   87.052261   38.389019   51.352631
H   80.598335   90.462112   12.013061
H   29.067949   36.480560   30.461121
H   71.012161   80.522743   62.062077
H   36.577286   78.581612   30.049978
H   39.573990   85.936295   55.767418
H   36.612907    5.614655   46.124599
H   85.929047   10.730556    3.107421
H   82.422676   65.545784   36.287552
H   99.301163   16.760403   61.394161
H   50.809124   19.227545   92.343719
H   70.691086   66.496452   15.345387
H    9.058533   41.136944   70.335609
H   60.699158   85.383049   12.059343
H   17.703552   88.852219   86.382698
H   63.823288   69.357193   80.553596
H    1.254759   64.565300   88.995758
H    4.528661   17.941261   46.264881
H   70.861069   65.925369   99.599968
H   21.513247   80.581833   14.769303
H   35.794682   94.214760   61.152649
H   49.396095    9.211161   33.004005
H   95.615593   17.173464   51.488472
H   80.153030   31.752634   74.223969
H   31.782417   65.603172   10.722878
H   76.428116   80.789948   30.851362
H   26.343840   28.837973   38.543350
H   74.371437   16.496483   92.363808
H   95.571831   92.168373   93.527809
H   27.762651   10.123534   57.980141
H   43.417950   47.137661   50.965717
H   58.326538   82.057617   81.733917
H   23.259388   15.515737   42.552837
H   87.523087   31.126171   88.914368
H   18.160223    2.018792   69.772133
H   82.992813    5.986884   52.754410
H   61.301033    7.920433   60.812546
H   94.091949   41.714127   67.675789
H   14.851009   11.724127   37.161934
H   13.933010   43.771908   27.939648
H   63.514462   88.904587   79.275543
H   56.779873   24.761328   96.442291
H   40.531384   62.907551   78.088310
H    9.766845   17.132555   81.033958
H   14.369326   72.192665    4.150689
H   27.655396    2.665410   48.826950
H   33.569916   74.717987   21.204712
H   50.017982    3.442583    2.495784
H   72.703621    6.783190   23.361019
H   75.357864   72.826370   78.308838
H   21.861382    0.211140   51.389004
H   27.996376   37.620716   79.348938
H   81.854286   91.307983    5.262881
H   62.271091   13.298203   86.729980
H   45.857868   83.080772   77.781456
H   33.131981   52.651695   81.100822
H   56.185768   34.774406   14.204015
H   83.592155    3.349349   11.938498
H   98.207787   33.348923   51.585484
H   29.857567   66.612534   54.001106
H   72.698845    3.062117   27.327555
H   23.964994   89.163452   83.819801
H    2.322804   81.437363   64.121529
H   29.729780   25.621462   34.918591
H   37.060081   68.522919    2.711184
H   24.919847   23.319977   35.332607
H   99.933205   11.301607   29.096231
H   80.627510   34.020504   54.788589
H   62.889271   46.407173    6.522403
H   80.827232   36.100838   14.412800
H   14.517779   23.654490    7.083849
H   51.352119   93.320778    1.018180
H   98.682465   71.291687   94.110619
H   51.605652   83.941620   87.061928
H   62.153740   12.584778   66.805176
H   53.305031   95.127197   15.692809
H    1.142365   96.553230   93.189972
H   19.582661   12.892306   87.863937
H   39.167873   42.550327   27.661980
H   30.863142   69.577591   67.921921
H   79.121895   52.981747   61.130798
H   43.852669   23.859318   77.165062
H    4.654353   19.994221   57.483345
H   39.854805    8.495005   33.403378
H   99.421570   55.947517    4.027088
H   67.460869    1.128055   82.361931
H   59.299435   70.998108   19.430029
H   87.531960   50.665390   58.850845
H   68.516655   90.048363   37.671429
H   96.356483   41.045208   77.688942
H   83.061569   22.651581   71.885124
H   61.364967   73.902740   15.487484
H   69.570824   89.185532   16.779041
H   91.405891   97.968971   99.725769
H   85.425781   21.104931   53.596447
H   20.036777   95.656342   41.896103
H   53.941666    1.221294   79.026176
H   69.415878   87.369759   71.069710
H   93.913719   54.354389   78.205421
H   54.572937   48.752792   71.475349
H   43.619118   93.934532   86.677032
H   66.261917   53.775894   25.117615
H   42.690994   50.612190   53.613361
H   44.847221   62.577259   88.725708
H   43.233284   15.089062   83.360878
H   55.155422   59.286942   59.401615
H   57.518425   67.419968   14.711815
H   52.205009   95.393944   45.019276
H   34.023872   61.655968   67.011986
H   73.633026   51.598763   94.803070
H   19.535080   92.124779   78.171524
H   65.081917   66.676590   48.958622
H   47.089447   98.365990   38.249603
H   90.855652   20.022823   92.371750
H   18.263237    8.396063   68.143654
H   26.143131   62.224331   66.470116
H   72.882866   44.312443   63.782867
H   62.618999   70.360397   84.497482
H   50.538757   31.589798   17.127369
H   97.919060    0.543661   90.885780
H   60.136875   44.050385   90.367844
H   57.059967   71.571404   75.013939
H   28.767366   21.418705   32.806412
H   78.821587   20.792431   37.100658
H   22.873945   29.462788   57.679092
H   55.928520   32.810791   12.929468
H   17.358086   54.384686   60.574421
H   69.458458   92.455879   55.571629
H   23.908260   45.309898   61.079731
H   98.366753   27.142569   36.110764
H   40.893684    8.075044   86.844879
H   73.328125    9.391791   35.949554
H   35.246437   53.709846   58.428497
H   43.778519   63.876102   81.532669
H   67.334763   66.979515   81.570786
H   56.750732   92.659409   84.373116
H   10.663663   49.367760   23.589914
H   32.171482   62.792534    0.126858
H    4.530640    9.502220   68.920853
H   67.520271   14.033505   65.438950
H   71.268639   57.844810   90.842735
H   75.648560   96.513359   34.372116
H   25.601454   30.491787   81.152267
H   51.085690   89.834839   12.327194
H   58.362518   25.805126   88.815590
H   89.609421   74.628479   77.094955
H    5.875772   38.890213   85.535744
H   42.355286   99.111794    6.266951
H   75.239685   80.609810   36.583733
H   97.467079   62.582569   70.154922
H   55.359924   56.554348   69.695450
H   62.916050   20.569527   77.044868
H   45.062416   93.516785   20.599409
H   11.119555   25.041779   65.045082
H   29.582895   76.142487   39.681644
H   74.050430   40.140789   20.782616
H   76.099625   11.158848   25.237019
H   11.561767   94.175926   14.132550
H   19.725813   91.125816   38.054863
H    7.699378   12.496088   63.884438
H    4.711901   24.286755   93.358566
