100
TIME:    0.457, STEP:   457
H   86.417641   80.112129   98.727615
H   88.557915   29.522526    6.827820
H   87.616333    6.782584   17.973938
H   81.553314   13.821489   15.113160
H   91.077744    9.388085   53.313850
H   20.929752    0.716262   24.003538
H   29.019562   92.195961   26.190767
H   83.966995   28.138371   66.234795
H   42.394066   42.354767   71.321587
H   62.351494   22.947605   25.585344
H   57.746002   84.631012   95.729134
H   38.398518   46.597649   60.399178
H   14.193002   34.058380   79.706505
H   32.453861    3.668231   92.017448
H   86.060844   29.202456   28.804365
H   83.148819   71.765450   95.104965
H   87.324440   12.219131   14.963820
H   10.910298   72.476700   83.702927
H   52.380516   97.523514   87.439468
H   80.278816   95.950226   47.365486
H   37.157516   10.721069   44.838936
H    6.167945   44.703125   80.343208
H   79.642418   90.905464   19.274700
H   76.581268   42.162754   73.134796
H   13.238890   49.930981   39.933243
H   44.563519   13.992530   46.338547
H   22.670774   23.479691    9.034758
H   93.980980   77.770401   81.880600
H   21.108307   90.554832   35.568970
H   18.516962   79.529007   19.718693
H   34.078831   63.024071   73.248741
H   94.612732   39.884811   56.957298
H    2.547629   35.045464   38.967125
H   97.411125   31.841278   52.498299
H   69.412376   24.374619   52.555618
H   12.289357   20.385435   19.071859
H   23.631592   87.799171   44.475048
H   45.100960   50.589817   54.689625
H   30.174820   70.752388   98.324860
H   20.149487   69.401176   73.990654
H    4.011669   71.860283   53.107723
H   90.548607   32.368088   24.270636
H   15.177426   66.240433   34.482925
H   50.176605   20.430307   25.414936
H   17.014462   13.860929   95.213806
H   72.114815   71.795219   85.110420
H   40.905567   50.394344   31.528265
H   56.263821    0.088565   96.854538
H   78.387627   94.601059   26.243662
H   35.474537   37.705227   51.700821
H   43.509754   25.523401   58.235416
H   27.341711   21.332424   44.061325
H   18.358973   24.658569   76.328987
H   66.105453   99.745445   51.982319
H    4.377171   98.567459    4.284000
H   94.138046   12.051659   77.069443
H   25.223801   76.360344   99.451836
H   92.029724   33.728889    1.783298
H   26.319649   58.078079   76.399994
H   28.861458   62.915558   50.611412
H   88.528305   57.316879   78.763977
H   82.691315   23.691666   74.678055
H    5.230376   75.989433    2.205952
H   74.421455   44.280449   14.732130
H   50.462128   24.344006   38.120644
H   73.271156   19.554279   73.207268
H   50.902885   64.159729   89.125778
H   48.797722   43.673874   88.049843
H   79.679558   16.949211   31.570194
H   39.643997   71.130516    0.769762
H    7.519975   64.310371   56.666416
H   36.285427   36.358665   90.080971
H   77.194366   95.702492   50.031170
H   20.132027   20.459501   76.047737
H   84.205368   29.293955   36.042042
H   36.462711   36.861908   65.178024
H    8.447242   86.934929   99.120422
H   53.451019   20.838272   39.678951
H   83.457924   52.163914   22.784168
H   77.113358   84.065544   81.550262
H   19.824955   34.009533    7.302731
H   75.612785   47.212112   48.565544
H   46.711384   14.885224   73.426880
H   81.607452   51.267673   21.688240
H   30.078005   20.297752    3.451504
H   40.774906   25.840214   73.518684
H   97.676704   70.125298   45.334667
H   63.311966   68.705498   90.989006
H   65.166939   68.727150   24.461689
H   25.931202   90.481842   40.549435
H   42.724888   98.108902   43.112743
H   12.100227   29.876459   42.231323
H   14.605961   41.323936   54.269676
H   91.398262   40.953224   57.630733
H   48.690937    8.793674   26.587593
H   31.667938   77.684868   43.844383
H   26.327658   93.906837   10.906439
H    8.543107   20.128754   48.723595
H   86.941734   38.820240    6.771710
H   67.622726   66.966316   53.670517
