100
TIME:    0.555, STEP:   555
H   79.790199   71.125008   98.637894
H   85.831871   34.836117   13.009458
H   89.300110   13.833026   16.823257
H   81.569763    9.783640    9.741261
H   90.199966   17.243217   50.656593
H   19.410091    0.609601   33.708874
H   23.883369   98.812935   33.854496
H   76.264389   36.616322   57.236641
H   39.985039   32.932495   65.153221
H   59.673302   24.354366   29.423189
H   48.630280   88.574280   86.288918
H   34.657871   51.509911   53.423317
H    7.959400   28.129272   69.965721
H   27.601414    3.366075   99.474815
H   87.252647   20.448984   24.093603
H   79.208542   63.193966   86.970200
H   79.445381   18.700027   23.886290
H   13.004365   67.710983   80.305466
H   53.906532    1.634522   92.602951
H   77.626045   93.895599   54.051247
H   31.342056    0.964638   42.179436
H   15.564982   44.832474   71.999092
H   78.333977   90.108437   16.470524
H   67.476013   43.338108   65.856873
H    9.734137   42.158840   40.656998
H   44.114162   11.072650   37.153290
H   14.220114   19.405952   10.979475
H   85.711632   82.344711   85.119553
H   23.239197   99.446251   30.936428
H   22.274431   77.103531   27.509151
H   37.933872   71.812309   65.493797
H    0.800497   37.177460   47.884941
H    9.450777   27.875422   47.795738
H    1.551847   22.860138   48.369606
H   66.976433   16.966599   58.522858
H   20.810299   28.083929   18.734655
H   33.031017   84.210304   52.197094
H   41.050774   48.796131   61.604923
H   25.769112   68.660378   88.932495
H   10.918995   60.226826   81.700737
H   97.314392   75.223351   55.417309
H   81.740929   36.766693   28.874853
H   16.021376   66.828110   41.561218
H   43.918518   22.072588   34.996956
H    8.513706    9.994485    3.599958
H   70.863197   73.637505   85.494728
H   41.940357   55.681194   32.365669
H   56.269054    1.097594    2.918205
H   81.252739   86.484238   22.334414
H   37.529911   39.196850   44.846832
H   43.502277   16.061876   59.268711
H   32.104073   12.238758   37.627533
H   20.391916   25.226807   70.637642
H   63.836933   98.146904   56.306904
H   96.575531    7.158692    5.115608
H   94.260666   11.948666   73.733292
H   31.436279   73.532616    8.772583
H   84.732361   24.474098   99.258987
H   34.048424   62.218735   68.876831
H   22.394768   70.447800   47.824059
H   94.710129   52.759766   71.122681
H   79.213104   22.779495   70.244308
H   11.877817   69.306664   95.482765
H   81.150581   44.813545   12.071135
H   54.352310   16.516911   47.247581
H   67.250832   14.682392   79.001793
H   43.040276   67.548218   93.857101
H   42.028221   49.278488   92.734810
H   84.563408    9.907555   25.423512
H   41.629089   76.059227    0.563683
H    4.407848   57.641842   55.491062
H   28.205065   33.106255   97.255714
H   70.804688   90.854530   47.518215
H   17.974968   14.257811   70.223305
H   88.930710   29.433397   43.470997
H   38.779774   43.143173   58.584095
H   17.345016   78.441277    0.854754
H   58.055237   14.430275   45.091412
H   88.154854   51.876804   23.876904
H   72.307266   78.728600   73.107452
H   21.742756   35.023388   13.159874
H   82.965477   47.852127   40.370216
H   52.911900   16.520903   82.760925
H   88.348541   59.653660   12.737007
H   25.305933   14.167575   93.951530
H   38.519154   29.439922   80.324074
H    4.221930   62.999901   50.007671
H   64.889572   60.859337   89.970665
H   67.200630   63.270576   23.659801
H   17.266705   86.448853   44.053066
H   46.735447    3.400699   45.182323
H   19.351336   37.246986   44.098282
H   20.893581   44.260078   61.851158
H    0.869937   46.898033   64.238014
H   46.996693    0.015237   28.839233
H   39.762329   73.814873   38.782585
H   18.549162   99.530891    5.270280
H    8.902928   20.963165   47.155708
H   82.273216   39.242680   98.562721
H   73.708847   64.449623   44.231796
