100
TIME:    1.386, STEP:  1386
H   23.592676   94.918137   97.877090
H   62.716133   79.892448   65.428703
H    3.578969   73.618568    7.065880
H   81.709244   75.546593   64.193596
H   82.756775   83.851540   28.124138
H    6.523896   99.706535   16.005671
H   80.329567   54.928028   98.839775
H   10.949432    8.509184   80.936333
H   19.557472   53.035172   12.842862
H   36.963326   36.284264   61.966545
H   71.332687   22.010975    6.243296
H    2.938730   93.163887   94.272499
H   55.097931   77.852379   87.371788
H   86.455254    0.804004   62.716511
H   97.358650   46.222622   84.148911
H   45.796600   90.506401   17.990707
H   12.635017   73.655380   99.547829
H   30.762512   27.299652   51.496384
H   66.847923   36.498184   36.382023
H   55.175217   76.380234   10.697916
H   82.029434   18.236389   19.626221
H   95.246452   45.929298    1.239023
H   67.238930   83.349968   92.694290
H   90.267082   53.304630    4.137157
H   80.012932   76.251961   46.788483
H   40.303806   86.310440   59.262093
H   42.562584   84.863113   27.469885
H   15.595314   21.133495   12.585822
H   41.308273   74.840820   91.655968
H   54.138439   56.536484   93.572014
H   70.623055   46.334259   99.736511
H   53.270023   14.220099   70.955116
H   67.986771   67.075920   22.658781
H   36.663567   46.704048   13.361546
H   46.320625   54.149208    9.127136
H   93.061737   93.361038   15.875234
H   12.734792   53.778175   17.676519
H    6.706419   33.586407   20.248058
H   88.410934   50.920982    9.284856
H   32.648026   82.430763   47.082111
H   40.523056    3.740283   74.998093
H    7.055412   74.063362   67.916733
H   23.179266   71.811371    1.586116
H   90.854286   35.999367   16.250105
H   36.430428   77.205276   74.713821
H   60.206188   89.352608   88.799355
H   50.714954    0.506423   39.466499
H   56.313435    9.653574   54.335751
H    5.546411   17.661179   89.185898
H   54.958645   51.845203   86.726280
H   43.438877   35.834557   68.030624
H   72.490044   35.128391   83.073654
H   37.630447   30.045227   22.372520
H   44.594952   84.591927   92.977615
H   30.420471   80.009476   12.167303
H   95.300430   11.075327   45.444092
H   84.117981   49.554634   87.807503
H   22.853230   45.997307   77.855057
H   99.588722   97.329803    5.078964
H   67.555756   34.320629   24.188438
H   47.130932   14.117225    6.333015
H   49.719299   15.044466   32.642662
H   68.245499   12.638420   38.473244
H   38.213379   49.333984   89.509926
H   87.334984   50.147106   24.636332
H   16.200935   73.370918   28.136488
H   76.367050   96.281219   33.979198
H   84.625175   96.803329   32.461414
H   25.979950   50.197205   73.305855
H   58.461861   17.854498   98.814606
H   78.020241    1.096876   45.524540
H   59.684132    5.526535   58.099075
H   16.621918   49.747997   26.209385
H   99.685417   61.672173   20.834496
H   28.996902   30.615812    6.465755
H   58.427517   96.401878    2.670047
H   92.794640    6.417462   15.558792
H   97.097122   60.094856   90.983139
H   27.987200   49.442234   33.143242
H   31.553574   33.469208    1.516131
H   38.004925   43.620464   62.826534
H   45.316296   53.279190   70.880936
H    5.494334   30.389711   61.909519
H   45.514927   30.763407   36.834206
H   84.842407   62.190483   13.395201
H   19.391293   59.966885   38.031410
H   59.722527    2.579435   89.632843
H   78.267029   94.328247   81.335548
H   84.445503   17.002089   16.860123
H   43.797600   52.252930   73.762428
H   80.743355   48.271008   62.731518
H   80.836922   99.746971   59.929329
H   74.212547   69.158676   26.139925
H   81.190132   97.303398   20.269920
H   32.630192   25.580040   47.934868
H    8.399551   40.998894   95.860046
H   52.588028   47.220074   57.479034
H   11.954066   28.038635   33.860672
H   42.686089   42.824795   28.952419
H   25.316696   43.102886   64.194283
