100
TIME:    1.230, STEP:  1230
H   34.142006    9.224056   98.019913
H   67.055550   71.434990   55.588253
H    0.897838   62.395123    8.897652
H   81.683060   81.973595   72.743889
H   84.154053   71.347450   32.354057
H    8.943039   99.875542    0.556172
H   88.506142   44.393696   86.640373
H   23.210724   95.013107   95.259026
H   23.392250   68.033890   22.662584
H   41.226570   34.044334   55.857323
H   85.843430   15.733949   21.269983
H    8.893215   85.344368    5.376691
H   65.020630   87.290550    2.877370
H   94.179558    1.284950   50.844410
H   95.461494   60.156124   91.647079
H   52.068878    4.151035   30.939926
H   25.176678   63.338852   85.344154
H   27.428802   34.885895   56.904587
H   64.417564   29.953356   28.163790
H   59.377762   79.693710    0.076804
H   91.286697   33.767120   23.860306
H   80.288200   45.723396   14.522460
H   69.321754   84.618706   97.157486
H    4.761212   51.433659   15.723366
H   85.592522   88.625130   45.637573
H   41.019108   90.959305   73.884323
H   56.015251   91.347244   24.374212
H   28.757576   13.851851    7.429360
H   37.916245   60.687138   99.030357
H   48.156567   60.397446   81.170280
H   64.486458   32.344818   12.080605
H   43.420048   18.529884   85.396828
H   56.998219   78.489799    8.605069
H   30.072319   61.000557   19.933275
H   50.198250   65.941566   99.628204
H   79.498383   81.106888   16.412077
H   97.772362   59.491066    5.384540
H   13.153952   36.441662    9.239849
H   95.423508   54.251122   24.237022
H   47.340866   97.034340   34.807728
H   51.183548   98.387337   71.322800
H   21.075798   67.062691   60.587574
H   21.835546   70.875885   90.317543
H    0.816102   33.384529    0.997284
H   49.961647   83.360916   61.364464
H   62.218792   86.377144   88.166176
H   49.067738   92.091751   38.133492
H   56.305103    8.047419   44.683346
H    0.986702   30.580643   95.408188
H   51.686825   49.470783   97.637901
H   43.450779   50.895164   66.385788
H   64.908562   49.604618   93.314011
H   34.394333   29.140686   31.432808
H   48.207165   87.136543   86.093582
H   42.840057   66.334244   10.843519
H   95.105240   11.239275   50.754700
H   74.227539   54.055916   72.970650
H   34.469910   60.729424   81.873123
H   87.284584   90.738556   17.055206
H   77.850861   22.329512   28.625450
H   37.290478   21.371483   18.495758
H   55.256042   16.496689   39.701653
H   57.664040   23.276894   49.175392
H   27.500769   48.485382   93.744606
H   81.143639   62.607159   10.108331
H   25.784309   81.126167   18.912550
H   88.883041   90.887299   26.447266
H   95.401115   87.881699   25.003714
H   18.204468   61.406372   83.089180
H   55.301918   10.007973   99.143097
H   82.973793   11.711546   47.395512
H   72.547256   10.704140   46.676865
H   26.793839   57.463970   30.209599
H    3.118773   71.543854   30.106041
H   21.475525   30.393843   94.639824
H   54.739132   86.404320   13.166657
H   78.631432   19.938547   12.798454
H   89.767960   70.295204   82.368576
H   20.509264   49.899265   31.403397
H   39.204086   41.965942   14.955468
H   34.952099   42.006573   53.502621
H   33.610821   52.260391   83.925369
H   95.623344   27.786180   47.051243
H   34.783024   17.414286   51.083107
H   92.438171   71.947845   28.517647
H   22.982082   54.236141   27.198341
H   49.303642   13.921913   82.194183
H   75.755737    6.817884   82.956581
H   81.208199   25.687468   18.136597
H   57.589615   58.671600   68.185219
H   74.359200   39.848064   59.437084
H   69.294502   88.014122   56.957436
H   64.203087   64.483627   14.070896
H   66.112862   87.841423    9.751657
H   35.327152   39.554008   44.350029
H   95.514511   47.159294    3.917714
H   64.970718   38.267498   66.450653
H   11.381289   26.710388   36.356491
H   50.117607   42.152340   42.019466
H   15.628586   47.110241   79.219185
