100
TIME:    8.651, STEP:  8651
H   32.289787   28.683115   91.225784
H   61.556747   73.650024   23.577824
H   28.473658   96.292023   21.790546
H   82.928650   76.228935   65.973457
H   17.678732   66.173050   31.140244
H   93.863647   91.835823   35.483307
H   99.571999   45.495537   66.972633
H   39.934753   37.023144   13.887122
H   40.969780   54.534317   55.538555
H   38.470528   40.600544   46.442360
H   95.560089   14.334130    6.441765
H   25.656364   57.320492   77.141594
H   92.104004   38.353241   65.393768
H   26.735216   78.411079   15.584522
H   85.681038   97.282875   34.874039
H   53.685562   55.080894   14.932131
H   28.445168   54.166149   60.923012
H   86.058380   73.881355   99.641190
H   80.007004   41.274113   19.130566
H   59.440151   22.100473    5.332887
H   50.914116   94.982391   22.441622
H   91.760139   55.568314   82.565735
H   70.238884   24.267828   84.834564
H   15.254908   40.319305   64.576782
H   20.175037    0.091751    0.429335
H    6.816690   71.072006   76.784988
H   16.093172   82.865616   71.619003
H    2.595982   60.239140   52.729996
H   99.278114   33.978054   48.234184
H   32.709999   76.727066   71.118347
H   56.528515   97.808067   24.939491
H   11.986652   13.495359   98.397697
H   79.722061   35.533562   77.147354
H   43.627869   80.910217    7.299081
H   65.656212    4.667912   51.387287
H   24.653952   63.015694   92.229103
H    9.542809   87.716072   90.130394
H    6.431278    0.632622   32.918144
H   79.911095   92.927879    5.966488
H   48.365585    2.305184   18.676870
H   44.016571   53.017380   46.158291
H   71.154709   75.528061   21.610134
H   85.737701   15.382559   26.344090
H   26.948727   57.853508   26.583553
H    6.246010   90.573250   96.400200
H   66.455070   27.916203   18.306948
H    9.326690   95.308357    8.508280
H   56.715633   84.472488    3.852351
H   17.908730   15.974831   99.380951
H    7.368347   62.407192   78.655235
H   42.907574   34.445671   44.622818
H   25.567789   60.991222    6.151711
H   88.314568   72.170166    0.435436
H   76.352692   66.059753   13.561172
H   51.989601   16.736895   73.924515
H    4.370569    3.433711   98.126328
H   44.687111   39.925652   78.769493
H   81.884705   59.907097   90.724388
H   72.562782    4.303617   47.348915
H   88.142235   92.732239   17.555565
H    5.411928   76.258789   39.895679
H   91.877007   47.419785    3.923507
H   61.378292   16.954145   40.245422
H   37.088383   88.888687   92.263580
H   75.697296   69.903870    1.198457
H   69.904335   12.206468   57.698994
H   93.482162   47.448750   84.731979
H   82.781921   12.297097   79.770432
H   88.066437   28.180641   17.656441
H    5.722213   83.161453   83.494980
H   47.320797    6.785590   58.379555
H   60.877472   64.352928   90.160873
H   42.930145   90.397362   39.938816
H   39.765766    1.898647   89.140999
H   79.198776   41.053356   57.226261
H   30.172167   62.022217   13.827209
H   52.478348   77.034790   44.169746
H   38.415905   85.057625   92.209106
H   76.359337   28.108006   14.201389
H   75.272331   37.758934   75.629875
H   80.172997   18.780924   97.041397
H   90.460403    0.574075   63.260254
H   65.070595   51.793491   53.821308
H   45.323883   52.444191   73.281517
H   31.099060    7.749432    9.136179
H   52.190891   26.818722   42.534988
H   44.935581   74.353981   36.056328
H   95.160912   12.812195    5.880434
H   35.218754   12.498722   57.436775
H    1.473678   53.352165   33.469727
H   78.057243   40.559132   16.155418
H   18.385294   46.117020   98.365791
H   39.999195   87.089134   87.999695
H   83.350906   38.019032   10.122192
H    7.019254   74.826248   14.877422
H    8.458770   54.113159   20.613762
H   75.926750   64.141884   39.661995
H   21.578882   14.512162    5.211187
H   96.599510   74.159309   20.425220
H   76.557556   56.633007   64.362823
