100
TIME:    6.787, STEP:  6787
H   58.345047   99.620613   92.932327
H   13.035862   72.642540    6.046909
H   96.431290   62.187859   43.673641
H   82.615784   53.026337   68.145630
H   34.380508   16.765318   81.682236
H   22.770374   93.855232   50.885998
H   97.264160   19.627872   21.205393
H   86.441475   75.763153   85.034050
H   86.790459   33.751099   72.870323
H   89.382393   13.835972   73.456245
H   68.944824   39.332096   85.991158
H   96.798431   63.887867    9.823250
H   10.974197   51.165958   50.631035
H   19.029465   84.156441   73.734428
H   63.040901   63.784538   24.516071
H   28.633820   18.113319   69.660645
H   78.336891   30.878132   91.235725
H   46.204250   64.583633   64.251015
H   50.973713   63.078506   20.927914
H    9.665375   61.679829   78.423149
H   61.526520   80.550201   73.030281
H   13.056641   53.093826   41.302521
H   95.125969   39.423988   38.167236
H   88.447853   18.020479    3.011310
H   86.842720   47.917580   86.663429
H   15.605968   26.019306   52.196564
H   76.828880   60.351395   34.632618
H   59.873497   73.233925   91.114395
H   58.747719   64.861702   36.346252
H   61.236729   22.861839   22.935425
H   83.167015   30.659321   72.413170
H   94.292694   64.990738   70.957481
H   48.424709   71.913216    9.223516
H   64.868736   51.734634   85.826279
H   12.046373   45.798897   37.978210
H   62.619915   17.015614   98.088234
H   30.760944   55.981079   43.254307
H   83.472984   34.747746    1.382249
H   58.592739   33.538017   86.601837
H   23.934238   76.807541   72.022385
H   71.408325   89.062065    2.244332
H   28.242691   68.218369   26.448853
H   69.696198    4.201147   91.706535
H   45.970081   26.562216   44.332336
H   67.932838   64.109268   36.892521
H   90.517326   92.368484   10.734163
H   94.758102   93.937576   90.612984
H   56.601879   65.273880   88.519043
H   63.417702   70.349831   73.739243
H   68.233643   34.035915    8.984433
H   43.035564   14.402395   24.971676
H   34.974659   33.956268   28.512093
H   49.656094   61.362061    8.689814
H   19.521790   96.464661   31.307022
H    0.403415   53.385773   58.076794
H    2.048959    5.394458   61.581299
H   26.518442   93.710197    1.487536
H   20.681643   35.939445   38.738754
H   25.553467   25.539234   90.445793
H   11.147633   49.460239   70.572166
H   87.829491   62.942818   85.228012
H   58.034035   64.769638   88.263443
H   34.829662   44.150673   68.065491
H    9.090382   78.734756   42.873775
H    1.709446   18.777454   27.613073
H   84.411407    4.871422   47.484253
H   43.035110   83.005920   94.737869
H   11.541342    5.692615   90.660446
H   95.164314   62.115799   34.564014
H   67.885704   89.508232   87.441650
H    6.513949   33.614136   80.735268
H   14.349631   26.277000   53.535820
H   64.466125   82.594284   87.729309
H   80.799721   19.870579   99.893707
H   89.399651   38.317692   15.898666
H   86.106224   42.556065   39.250397
H   83.187103   38.368855   11.109968
H   50.845928    6.934522   89.259941
H   86.974586   33.583164   93.402687
H   66.684158   39.300056   36.214989
H   43.684006   99.496292   85.632462
H   50.587311   88.485474   19.204361
H   47.168816   20.620642   76.303345
H   17.084808   92.937157   43.529140
H   21.858702   24.354073   89.828926
H   95.085922   58.353943   13.093213
H   20.443178    9.882445   47.173759
H   65.182640   61.972401   25.207222
H   96.531601   16.283159   72.681892
H   66.277695   30.040379   66.833603
H    1.774649   39.910133   76.790817
H   80.468170    5.926907   62.841721
H   20.513111   31.163059   43.853706
H    3.204589   24.932215   84.436020
H   39.249931   41.791885   72.044434
H   54.499969   27.719988   16.891815
H   23.882097   57.171677   46.862930
H   25.176844   22.280445   42.632233
H   85.396141   66.110115   76.555244
H   60.776402    4.470079   43.927586
