100
TIME:    5.693, STEP:  5693
H   32.327553   99.945152   93.933914
H   43.247780   13.358253   37.067272
H   77.618149   83.481491   56.518993
H   82.432159   98.097748   28.109783
H   44.179367   29.076479   11.345047
H   39.738926   95.040443   42.543324
H   54.598957   45.756901   35.653095
H   72.427719   81.118546   85.481514
H   13.683128   38.934723   41.733025
H   19.265764   98.126411   30.621557
H   70.706039   95.312958   91.370979
H   38.555588    9.051249   87.695442
H   80.784805   17.323498   59.336601
H   73.197624   87.528450   90.479469
H   49.746727   61.505722   77.115906
H   72.620499   13.798551   60.472382
H   66.309914   58.517223   91.644592
H   22.808851   17.816563    2.177549
H   33.938389   17.180788   63.289608
H   39.137070   84.915810    3.938528
H   26.446022   89.460938    2.726933
H    8.173798   51.641525   34.466721
H    9.733380   48.321419   69.466827
H   90.096199    4.933077   84.261749
H   25.969425   34.676590   78.583961
H   20.594416   58.361382   55.072945
H   71.165939    5.824820   12.923519
H   52.182415   22.169685   54.955017
H   34.960030   65.605469   88.061523
H   19.288197   49.938072   35.965317
H   40.110840   32.558132   58.966896
H   25.216587   95.221970   72.234535
H   71.365349   51.955132   10.667356
H   18.644295   51.993217   31.913225
H   39.259460   28.572901   71.391190
H   67.520370   31.329304    1.527789
H   25.832115   96.044556   57.051434
H   28.690563   54.771137   24.181026
H    4.767590   57.375786   92.618614
H   26.976805   79.224037   85.948021
H   46.175110   51.522026   76.470314
H   20.439114   63.928375   70.595787
H   60.277981   97.639175   12.685813
H   15.827101    8.199789   37.367393
H   62.829075    7.276570   43.276104
H    4.638099   71.502090    6.289622
H   86.211227   34.443314   80.113014
H   56.543453   54.006027   20.828466
H   31.442039   60.954506   17.377430
H   45.277134   17.382452   85.488327
H   43.110683   20.021162   13.440444
H   81.801964   35.471394    0.325911
H   26.961803   55.018677   72.229546
H   44.853592   14.314635   83.033226
H   87.509514   57.513042   48.770382
H    0.686354    6.545239   98.823639
H   57.162086   25.277870   97.439018
H    2.143401   39.254356   66.916733
H   39.271240   79.312111   74.429176
H   83.339386   65.372192    1.688121
H   18.819351   13.821554   70.523949
H   96.862221   74.952438   37.764359
H   60.559406   18.802896   43.084351
H   33.967415   72.775314   72.576767
H   58.289352    6.153279   25.733603
H   51.615929   59.257164   82.797920
H   30.808903   45.183475   41.920853
H   87.111198   43.126499   38.360920
H   40.641026   40.723656    3.176607
H   45.724129   34.483246   89.745300
H   41.254860    8.048956   93.856056
H    4.553741   62.585373   73.437485
H   35.797592   36.706795   15.778366
H    4.886280   89.109032   64.894768
H   36.653736   36.756886   32.966568
H   60.247375   72.441704   12.863220
H   83.842674   33.114414   91.731712
H   99.447815   78.469734   28.842699
H   34.512814   36.796589   81.200020
H   20.334732   98.894478   30.464043
H   22.275087   88.178360   20.246283
H   68.486267   81.390762   10.721242
H   77.970284    2.326271   72.116791
H   41.818962   99.321091   43.449047
H   75.127144   92.783989   95.879990
H   20.265530   18.166706   37.122513
H   47.377327   89.425301   95.007645
H   47.588097   49.514484   36.550194
H   73.828964   77.195259   81.629402
H   63.001987   75.051315   27.728922
H   57.003685   80.836685   53.687542
H   99.523247   23.647184   42.000366
H   50.385696   98.336525   59.253010
H   97.474586   58.560863   10.669297
H   58.163231   39.785679   46.904606
H   64.140045   70.921356   73.398010
H   10.719028   94.390465    9.779609
H   27.288523   68.146515   64.592247
H   37.511566   61.390583   68.189568
H   92.825729   32.543514   49.316463
