100
TIME:    9.975, STEP:  9975
H   42.753082    7.267068   90.013626
H   24.990944   45.395550    7.060002
H   51.231930   91.545784    6.248083
H   83.150879   21.680861   93.398453
H    5.814734   72.297226   95.243431
H   73.337769   90.401436   66.604332
H   30.180733   34.898201   70.511169
H   35.870972   51.565456   92.321999
H    8.423332   27.236290   72.197792
H    2.303689   59.611225   98.282326
H   72.404755   67.606888   78.903908
H   75.124443   23.684929   82.897911
H    7.676940   58.214455   33.820068
H   61.179108   74.330147   16.341541
H    1.762604   79.016663   71.200706
H    0.448757   39.279037    5.028337
H   21.976967   41.739006   81.451950
H   14.376822    9.455404   53.743057
H    0.633879   96.815292   88.896240
H   23.772396   93.982391   95.477013
H   72.345581   63.176334   86.503189
H   18.693314   57.325943   69.814896
H   52.561203   13.499571   46.991585
H   92.236450   56.158173   66.245300
H   72.821396   95.092468   10.202541
H    0.571204   32.040512   52.190411
H    1.923172   27.827375   97.882431
H   90.880287   22.038990   96.491508
H   28.068005   54.101902   85.648849
H   83.479225   43.958389   76.372627
H    8.633811   16.533634   20.188843
H   95.585037   76.911453   75.828377
H   72.983925   38.663498   96.423729
H   99.568970   59.573448   51.520134
H   32.705711    4.422508   31.940374
H   39.746647   66.720627   88.067360
H   36.531433   39.229744   94.456436
H   51.705463   76.409447   26.349243
H   24.023373   64.078514   77.661003
H   23.660278   78.356979   22.846521
H   53.530640   98.450668   77.351158
H   59.574646   80.726242   89.189934
H   97.131989   23.327049   21.977497
H   42.415180   80.079201   56.034779
H   91.367615   38.294010    9.682601
H   49.372292   53.168682   23.685900
H   19.678913   67.317322   21.222277
H   56.796444   98.109268   85.773666
H   56.606659    6.326357   46.530975
H   35.157860   82.568626   86.081184
H   46.824619    6.922356   52.423065
H   89.913696   38.133095   19.238981
H   15.774231   79.847168   23.539520
H   45.691124   44.453995   71.985603
H   46.570808   32.765884   85.177383
H    6.019609    2.040992   53.054245
H   28.623749    1.721727    4.692910
H   83.297073   34.871758   56.622337
H   76.988731   60.252403   45.704517
H    0.772703   94.499191   79.897865
H   88.934784   14.687822   36.673817
H   44.885674   35.096176   44.018852
H   51.294773   26.657598   49.478439
H   28.005119   96.101028   56.320930
H   28.247105   64.157234   24.496931
H   88.570129   46.386742   35.984707
H   87.255196   93.224274   48.655529
H   91.324150   88.017891   43.065292
H   54.056030   33.046448   34.618343
H   32.612030   49.661594   80.686813
H    5.271658   16.696224   42.500282
H   51.849480   20.391991   87.209015
H   56.603928   24.905897    5.988285
H   10.623463   18.102940   10.473314
H   42.975975   43.002911   57.612782
H   61.476151   46.877232   24.738708
H   72.725533   62.439724   67.653740
H    0.615603   98.489235   65.333946
H   39.850403   24.218998   28.979311
H   10.342523   65.633705   61.566078
H    6.092405   32.478313   76.175606
H   89.811790    9.169206   52.494637
H   48.814590   73.935585   79.911819
H   36.413235   65.741653   52.354607
H   66.632446   24.924126   80.789963
H   21.715214   75.453651   34.477604
H   33.362614   78.088081   99.189568
H   16.452976    6.868258   92.158646
H   62.694340   38.779762   46.608162
H   84.415039   98.875961   80.797989
H   32.241417   12.051644   44.115868
H   16.347887   45.694519   23.589746
H   24.870106   26.814283   90.386650
H    7.298713   18.041122    5.556165
H   84.128479   56.230728   45.299843
H   17.815735    1.831090   52.227249
H   70.833794   40.122406   63.516663
H   19.023249   80.023026   78.625511
H   33.526878   79.876656    9.526142
H   58.795761   22.660885   36.816647
