200
TIME:    0.368, STEP:   368
H   13.404382   62.050190   17.528297
H   29.105154   34.746819   95.093468
H   15.454856   74.740692   51.652885
H   22.157204   78.469856   41.152527
H   13.851134   86.973389   51.818169
H   85.454529   49.340874   61.760658
H    5.213714   55.213310   52.128902
H    5.757035   94.413727   20.528873
H   92.626717   85.587280   44.596859
H    6.355365   73.105919   91.023628
H   16.655207   97.328560   97.006592
H   31.307098   45.439346   18.841219
H   14.315776   91.255928   56.045586
H   98.353523   53.746975   48.433773
H   13.441989   72.929939   42.663651
H   25.569431   20.692440   51.561775
H   90.228897   13.713371    9.217449
H   33.522629   89.320358   41.241558
H   69.284210   25.067883   44.368111
H   90.463478   77.946861   32.508808
H   59.621208   83.147903   19.976215
H   87.179420   53.706947   65.642075
H   91.172203   61.610794   46.064919
H   11.319413   89.226173   91.184715
H    8.810008   17.851995   40.842968
H   18.555136   68.016800    2.729010
H    1.374451   61.365116   54.228348
H   97.447784   75.409706    1.068073
H   16.459705   52.639107   37.588852
H   87.265244   24.193300   94.198166
H   13.194378   56.796909   16.351307
H   29.598415   66.506332   96.754494
H   24.030525   11.739811   74.742630
H   92.190224   63.717567   40.527603
H   41.845860   84.511948   33.245457
H   28.880104   47.003494   80.944252
H   89.938293   71.666306   86.915871
H   26.583572   48.066349    9.412315
H   48.332947   41.817120   47.276848
H   88.855209   39.162121   58.696381
H   80.542397   99.244492    5.772877
H   19.710405   40.422806   36.035728
H   74.397171   84.841499   55.081211
H   36.996109   69.450691   23.326216
H   33.150360   80.200424   48.983055
H   39.258522   10.507320   44.079967
H   82.386261   19.941185   98.985649
H   86.999611   65.548653   43.046097
H   92.030563   23.894741   61.258617
H   57.536831   18.379141    0.297078
H   75.163315   68.875999   22.795979
H   16.245050   37.901104   66.293678
H   55.628426   90.759148    9.602788
H   20.501564   84.884872   83.598671
H   71.780930   73.538254   86.633705
H    3.664785   69.196739   82.839630
H    5.065188   17.229836   48.281544
H   68.807114   61.554981    2.993198
H   25.480234   76.950119   10.222310
H   40.142841   95.270424   64.628021
H   50.004967   12.879091   38.496758
H   92.236496   16.728106   50.047138
H   74.973679   27.858080   80.566559
H   27.227356   65.334953    6.525353
H   73.405991   77.987274   23.163733
H   33.718704   21.534025   35.164078
H   81.393898   20.462036   88.479652
H   96.624626   91.740944   89.805733
H   21.075464    7.582984   60.359688
H   44.500149   43.860943   50.975758
H   58.409012   78.806000   76.705170
H   28.543087   20.457331   43.868832
H   81.556290   27.875988   95.209625
H   12.035407    6.151175   64.298744
H   80.703629    2.943602   61.594162
H   56.549110   14.557599   62.041046
H   94.886566   34.715332   70.335030
H   21.814274    8.300749   43.590584
H   12.503704   35.396160   32.103497
H   66.347382   89.953079   88.191315
H   48.800716   27.938719   99.233490
H   32.264645   66.288490   83.900200
H   10.500323   15.070354   86.534599
H   20.499994   66.045143   98.023407
H   34.350113    0.677387   54.154755
H   28.273415   81.295807   25.118271
H   41.592033    3.050833    2.064769
H   74.267036   13.780371   16.270069
H   69.603348   72.368759   77.631821
H   22.803017   91.784462   53.457302
H   35.877098   35.997776   80.185150
H   83.163826   89.658508    1.160793
H   53.340260   15.418495   92.084320
H   54.288120   89.835014   72.619316
H   28.368309   55.194756   73.270836
H   63.971291   30.571114   23.043371
H   81.041924    9.851927    3.841861
H    3.375895   30.427723   49.805485
H   34.117516   68.495804   53.334862
H   69.430016    0.007462   27.281656
H   15.577064   83.965454   74.967140
H   95.332069   78.593094   65.158546
H   25.832716   32.492218   32.291622
H   28.026537   68.175812   95.245377
H   25.169062   25.790604   29.237438
H   92.490486   20.506037   37.898094
H   71.721779   31.686136   55.663528
H   63.997288   39.188927   13.792088
H   76.049492   38.473930    5.322041
H    8.478549   26.275721    6.163729
H   48.878624   94.954475    0.885908
H   91.133606   66.564148   91.969170
H   54.870895   81.760010   91.151192
H   62.790581   16.637825   71.653198
H   59.578773   87.298645   22.284622
H    8.814738    2.052699   84.708801
H   27.312244   10.245078   85.672287
H   40.121700   33.296772   31.419914
H   23.723425   62.519276   77.213486
H   74.160561   49.229549   54.117661
H   41.890511   22.610020   83.325493
H   12.766148   24.447803   51.953300
H   35.322334   16.424129   27.826269
H    2.191418   62.712517   12.259897
H   73.086296    5.782864   88.579735
H   52.411800   65.854614   23.059950
H   92.204994   49.787582   66.111404
H   72.628868   88.573875   36.083630
H   94.042915   47.850368   81.973274
H   73.949295   23.542656   68.682274
H   53.775948   80.615387    8.302944
H   76.786919   87.320908   12.345540
H   92.019783   88.822273   98.327301
H   94.644196   16.284828   51.282776
H   10.749413   99.055695   50.535049
H   58.948898    1.462574   81.795860
H   69.104630   86.890694   61.710732
H   92.310143   60.224369   81.175911
H   49.658936   46.123672   71.519814
H   43.517281    2.950892   91.900848
H   56.954571   59.304504   19.044678
H   51.345718   44.899986   49.230778
H   50.890755   59.116947   95.066864
H   51.847847   21.894247   80.245522
H   46.318539   65.521957   53.254093
H   50.630074   64.181259   23.715797
H   47.758598   96.217247   46.365391
H   39.157326   68.654045   68.090599
H   68.607147   59.448112   96.671997
H   13.542181   90.072258   85.206894
H   71.708504   63.483776   50.377888
H   39.175552    3.568011   44.141098
H   82.122040   27.052456   98.971085
H   13.293558    4.080795   72.789436
H   18.688221   57.259411   63.069130
H   67.301903   43.846287   57.998947
H   60.651104   64.722061   82.271408
H   47.865891   34.606186   12.722912
H    6.523511    1.252032   97.858040
H   62.244617   51.721161   83.153183
H   55.213272   79.209190   80.012566
H   37.594341   22.392971   34.435089
H   70.729118   28.989246   37.178829
H   15.973043   23.939915   65.722229
H   57.728600   26.431623   11.082235
H   14.119018   60.366543   61.602116
H   72.695732   95.496651   53.578632
H   23.744030   36.756294   53.305683
H   95.812218   27.753950   36.554688
H   32.314262    9.493772   88.961945
H   76.919678    7.156036   35.965332
H   41.741066   60.692863   57.851181
H   40.146088   71.954239   86.822464
H   69.649864   71.476189   77.209045
H   65.488647   94.073654   93.212868
H    4.859303   48.352257   23.409548
H   34.102802   56.919685   92.262459
H    2.864432    9.322929   66.516922
H   72.328133   18.403978   67.637772
H   80.211662   55.828148   88.190666
H   79.080902   89.776329   38.743225
H   21.809454   30.262295   74.289017
H   59.742214   90.032944    8.603401
H   54.268234   25.457302   81.899269
H   87.178238   82.782623   77.869492
H    1.940070   37.303848   84.594826
H   35.809021    2.332025    2.101289
H   84.271637   72.646431   30.005306
H    2.911591   61.744205   68.006302
H   51.941208   57.577023   67.320206
H   53.935017   26.789482   78.387398
H   46.603600   88.407715   22.994017
H    6.943672   20.569191   60.738342
H   32.867237   68.639526   35.892872
H   80.502029   48.538052   21.397583
H   75.640640   10.697533   27.812710
H   10.312110   89.049644    7.787091
H   25.189520   94.862236   43.356850
H   10.206401   11.970049   72.292458
H    6.672714   30.656239   95.970474
