100
TIME:    5.305, STEP:  5305
H   58.566811   35.525734   94.289139
H   53.963722   92.333328   12.602351
H   70.945847   55.566757   61.074749
H   82.367035   14.084148   49.378586
H   47.654648   97.976654   21.864464
H   45.757023   95.460793    4.117746
H   74.934196   19.556126    5.310957
H    2.923759   47.551273   21.106045
H   23.220909   76.239227   66.157417
H   29.867739   92.555305   15.426825
H    6.796844   79.700836   28.745373
H   53.365494   89.603035   15.313417
H    5.543930   40.787010   97.890312
H   92.409355   88.724373   60.954079
H   45.028160   96.163803   95.765198
H   88.220779   47.734390   92.679413
H   97.510475   32.855206   56.323425
H   14.511529   36.694904   15.627241
H   27.895603    0.902776   42.849392
H   49.589554   93.157021   77.521706
H   49.470497   28.087791   13.257862
H   70.975861   51.126450   67.508530
H   14.914479   51.476997   80.567596
H   26.146667    0.291474   13.077298
H   39.846222   65.447784   75.718483
H   22.363138   69.830673   91.559708
H    4.622396   21.953915    5.224633
H   84.921211    4.059151   42.128448
H   26.523445   30.402781    6.402555
H    4.411110   59.540977    5.121235
H   24.839836   97.765625   89.664223
H    0.718287    5.942392    8.153587
H   44.034573   80.343498   75.713249
H    2.249820   87.551201   48.259468
H   48.903809   57.902786   47.764870
H   33.791798    0.938638    2.748003
H   88.617523   10.254555   26.478436
H   44.725994   61.872669   96.801414
H   21.145969   65.830132   30.218012
H   63.520741   15.546705   55.421551
H   72.692627   38.209984   67.329201
H   54.837303   49.949867   52.029842
H   56.935909   95.312454   84.659492
H   40.601063    1.686998   99.431320
H   96.486504   22.584213   10.073466
H    9.645029   64.101578    4.713296
H   83.179977   13.341664   76.389076
H   56.522732   50.009750   96.821297
H   20.101494   93.090210   32.854942
H   37.139530   11.476843   12.626190
H   43.139881   57.480072    9.350181
H   62.945457   71.475754   25.798386
H   18.913006   52.768921   94.762627
H   53.837814   20.646317   65.911400
H   18.403004   23.509535   45.469753
H    0.203068    6.953378   12.032089
H   32.565742   36.473366   60.537102
H   31.033878   75.895775   76.910385
H    8.671423   62.918320    4.214851
H    8.944380   35.548260   12.723763
H   94.343719   31.865395    0.777188
H   10.632113   78.563889   55.321335
H   34.216541   45.279709   69.690674
H    7.323968   70.661728   83.109177
H   42.887405   37.142452   89.600288
H   75.451500   78.545860   59.856331
H   61.938477   31.770760   23.187977
H   13.913280   20.936064   19.812277
H   21.302008   68.602867   27.512070
H   37.864784   14.967867   90.562317
H   53.575233   34.448288   98.509499
H   36.545723   75.462265   45.029381
H   61.095505   55.897804   25.727615
H   13.426472   13.665958   87.948845
H   17.947088   36.203327    3.552596
H   51.073700   47.574028   38.970264
H   48.614941   66.745064   84.869957
H   81.218872    3.838945    7.414061
H   15.907922   37.936268   76.872200
H   39.359070   20.029785   63.890747
H   14.682289   84.164322   97.056847
H   39.366676   78.873245   43.177025
H   53.428909   95.837708   35.165203
H   15.125856   66.119431   78.886902
H   94.019173   17.053375   33.492058
H   29.196468    3.914798   10.178567
H   21.463690   17.636215   76.506363
H   41.347595   80.563828   40.573929
H   65.777206   98.798836   84.802742
H   97.304932   91.012741   13.858995
H   41.125145   59.884937   45.493694
H   70.815178   94.466370   34.608734
H   25.514055   86.696999   29.248371
H   59.975029   35.021313   84.507195
H   64.871056   74.540550   37.988468
H   32.092865   86.243378   93.438599
H   41.516106   72.123802   32.093842
H   26.337873   61.406586   71.141716
H   55.995087   59.718067    0.686763
H   68.723740   42.498684   86.693176
