100
TIME:    5.751, STEP:  5751
H   28.405394   94.626244   93.880814
H   41.645912   16.501272   40.724575
H   78.615555   87.654312   55.837978
H   82.441895   95.708221   24.930607
H   43.659866   33.725433    9.772495
H   38.839314   94.977608   48.287479
H   51.559391   49.673512   40.188770
H   67.869034   86.136551   80.156410
H   12.257378   33.358276   38.081917
H   17.681356   98.959206   32.892643
H   65.311020   97.646729   85.783913
H   36.341736   11.958395   83.566872
H   77.083694   13.815983   53.573418
H   70.325768   87.349678   94.893013
H   50.452080   56.324875   74.328125
H   70.288498    8.725564   55.657928
H   61.645912   62.353298   96.924561
H   24.049192   14.994488    0.167016
H   34.841541   19.614122   66.345444
H   37.574585   83.683876    7.887386
H   23.004219   83.687134    1.152729
H   13.734314   51.718521   29.527481
H    8.958886   47.849709   67.807434
H   84.707375    5.626925   79.954407
H   23.895184   30.076752   79.012306
H   20.330019   56.646675   49.619072
H   66.164749    3.413770   14.074364
H   47.288754   24.876930   56.872391
H   36.221169   70.867737   85.319763
H   21.512005   48.502586   40.576218
H   42.393723   37.758892   54.378120
H   28.878757   93.619217   66.865181
H   75.450554   47.711510   15.892453
H   21.095108   46.677849   29.469934
H   37.817780   24.188341   74.923264
H   72.562271   35.872093    1.345380
H   31.395065   93.920532   61.621624
H   26.293514   53.709568   28.273754
H    2.319284   56.111992   86.997917
H   21.513861   73.794502   90.511131
H   42.211151   53.511971   77.836769
H   15.551194   64.155685   73.557030
H   60.777569   97.986984   16.875141
H   12.123667    9.173300   43.038094
H   57.798237    4.988267   48.239239
H    3.889653   72.608353    6.525256
H   86.664352   37.597488   80.669685
H   56.546551   54.603409   24.417181
H   33.137276   56.151115   15.063748
H   46.493580   18.265249   81.431442
H   43.106701   14.421484   14.051875
H   84.620720   30.089287   96.518562
H   28.164974   55.354980   68.861198
H   43.510590   13.368228   85.592674
H   82.891533   62.596096   49.263775
H    0.758600    6.484229   96.849182
H   60.838860   23.604317    2.955333
H   97.824615   33.777031   65.422836
H   43.845413   81.762703   69.976692
H   79.511719   69.829987    0.038475
H   22.478203   11.124376   66.001549
H   94.803688   74.412582   35.139862
H   64.497200   14.844944   39.107117
H   37.950401   73.091263   71.002335
H   60.591705    1.520863   31.135038
H   48.052879   56.373802   86.227333
H   26.155300   47.188465   44.721024
H   83.104759   46.443516   41.133656
H   43.531910   36.556145   99.538910
H   46.898979   37.400681   89.623169
H   39.413155    4.102587   93.160439
H   99.771439   60.660477   77.683762
H   32.015945   33.838036   14.291107
H    3.609645   85.438011   61.448540
H   39.449924   36.839634   37.363297
H   61.618698   76.158745    8.960659
H   89.108482   28.087290   92.757439
H    2.172770   74.677467   32.045990
H   37.293957   36.626225   81.846962
H   17.490543   95.734993   25.467266
H   23.410112   88.778397   23.712645
H   72.839630   81.766891    5.869483
H   81.638649    3.296159   77.640137
H   45.809029    4.284326   38.151821
H   72.303078   89.156334   90.257523
H   18.930492   20.297146   41.150192
H   51.251015   85.208229   97.773300
H   48.520897   44.873051   35.948830
H   75.032578   73.965858   81.155037
H   57.873798   72.665329   29.802279
H   59.377281   83.968735   54.912395
H    3.814661   28.009176   43.105301
H   54.103622    0.076469   63.738239
H    3.080087   62.079662   14.580045
H   57.160515   34.590229   48.237431
H   68.930603   68.630951   70.402252
H    6.115318   97.718987    6.443896
H   27.176569   71.016602   63.427795
H   34.748566   61.640598   63.331688
H   96.428604   31.055229   43.728954
