100
TIME:    8.536, STEP:  8536
H   40.066887   39.229088   91.331070
H   64.732864   67.418869   16.326714
H   26.496920   88.018326   23.140396
H   82.909348   80.966789   72.276558
H   18.709215   56.955296   34.258331
H   95.646484   91.960411   24.094337
H    5.599093   37.729843   57.979481
H   48.973526   27.074526   24.446350
H   43.796700   65.591064   62.777821
H   41.611549   38.949314   41.939644
H    6.257095    9.707046   17.519133
H   30.045898   51.556103   85.327553
H   99.437149   45.313499   76.822525
H   32.429008   78.765541    6.832654
H   84.284248    7.555222   40.404167
H   58.309357   65.139183   24.478443
H   37.692757   46.560139   50.454109
H   83.599960   79.477287    3.627469
H   78.215393   36.449398   13.072253
H   62.538181   24.542662   97.503212
H   57.738380    6.430904   25.562902
H   80.734978   55.415649   92.359055
H   71.774300   25.202677   88.124741
H   25.940084   38.943573   73.117203
H   24.287758    9.212120   99.580238
H    7.359131   74.462204   87.606598
H   26.009764   87.645584   69.337814
H   12.299150   54.871326   48.928307
H   96.777580   23.544603   53.670433
H   28.300652   79.573288   61.976044
H   52.002110   87.495338   34.037926
H    4.725623   16.672527    9.043755
H   71.622086   43.947639   66.787247
H   38.768936   91.449310   12.143553
H   68.518227   13.374992   44.390179
H   14.657518   54.007629   92.590584
H   98.512840   91.927498   81.068810
H   11.184267    2.737293   24.803253
H   84.764763   95.433678   17.110535
H   59.196846   13.071300    9.628884
H   51.876144   49.071800   43.448940
H   80.846252   75.077087   15.739144
H   84.748016   14.692719   18.037930
H   34.291523   55.922394   15.339923
H   16.221367   95.109306   86.559502
H   67.939598   25.723190   17.839743
H    8.427594   89.054390    7.403936
H   56.708614   83.288025   96.736885
H   14.547485   25.498795    3.968422
H    4.954454   60.656818   86.695549
H   42.915470   45.548042   43.410278
H   19.978437   71.662170   13.700938
H   85.929848   71.503357    7.114492
H   79.016418   67.935593    8.486842
H   61.145943    6.658662   72.947113
H    4.227337    3.554680    2.041214
H   37.396957   43.243904   67.832069
H   90.447937   70.767311   93.686424
H   63.492428   99.444206   56.177994
H   95.731575   83.893509   20.826439
H   98.157578   81.607300   48.861629
H   95.958580   48.490189    9.127029
H   53.570484   24.801874   48.131317
H   29.191238   88.262238   95.385300
H   71.133163   79.088287   90.489120
H   76.969002   17.923332   50.899296
H    2.708805   43.473339   79.179916
H   90.725723    5.719853   74.272766
H   82.335388   36.443810   24.869385
H    3.386531   77.384781   83.738892
H   50.973331   14.610709   59.758797
H   70.347626   68.171288   81.731003
H   50.428238   96.086296   42.887691
H   42.297009    9.176865   95.974037
H   73.658997   40.884022   48.506855
H   27.453165   54.651344   21.565203
H   42.034012   86.987793   42.129837
H   33.013874   92.576775   85.856873
H   70.844124   28.445797   12.918001
H   80.912132   44.023430   85.537254
H   77.921638   17.591196   90.167999
H   81.830490   99.827713   72.881538
H   57.796364   49.870274   42.868969
H   37.412544   42.603493   83.785515
H   36.698502   14.943293   20.283871
H   54.837948   22.594574   34.549072
H   37.254993   82.715416   30.572701
H   93.311394   22.014599    7.072897
H   32.832279   18.901525   58.377327
H   11.641406   58.083878   29.358919
H   73.350975   34.349911   13.726829
H    9.876459   37.467804   96.174095
H   32.627445   83.639275   79.106567
H   72.236252   31.042103    2.368136
H    9.007782   85.126694   12.234972
H   98.960159   58.654480   26.553627
H   85.055016   57.542229   46.275688
H   21.800859    8.821912    7.520014
H    2.077824   73.662712   30.057980
H   69.413925   59.583637   75.440628
