100
TIME:    3.170, STEP:  3170
H    2.948518   31.316093   96.243790
H   13.090811   76.617966   77.962662
H   34.244194    1.967022   86.128761
H   82.008682    2.045282   66.406189
H   66.777649   26.846981   79.753281
H   78.864754   97.773796   92.681450
H   86.830528   75.391869   38.351067
H   70.730545   62.846127   17.134602
H   75.703285   81.510757    0.546018
H   88.213768   61.899864   31.823809
H    5.389343   93.794540   34.399258
H   34.850922   82.586502   67.284996
H   41.618492   69.917938   10.057117
H   98.121513   95.305031   98.477547
H   19.059822   86.870346   98.392494
H   74.065430   34.469391   69.903664
H   69.194588   91.641968   61.965954
H   68.884727   40.543648   89.645203
H   94.641258   11.337474   30.370195
H    7.115341   38.496822   32.160942
H   76.164429   40.634163   71.201630
H   66.291336   48.292206   49.323486
H   43.419960   68.840813   41.653641
H   24.514191   74.700867   71.642647
H   16.207001   34.762642   59.950966
H   32.123692   33.154400   92.047279
H   88.726242   10.703185   62.871677
H   65.065453    4.404572   71.556755
H   80.099167   36.698868    7.325183
H   22.545025   12.382640   35.394043
H   40.814785    6.316010   58.578636
H   65.912941   64.924858    5.801270
H   93.647675   36.549538   83.375587
H   12.040950   83.211220   38.203232
H    1.972785   19.292603   17.759773
H   48.173641   33.504757    9.743112
H   83.843056   88.442856   58.248898
H   32.969559    0.934357   46.138935
H   11.264787   12.348658   37.115341
H   64.613876   15.418221   87.443398
H   18.604704   64.951462   17.029524
H   46.719627   54.131012   51.730209
H   38.545902   82.509491   30.446384
H   76.933350   65.901520   90.679771
H   81.681221    6.820627   27.376680
H   37.190258   23.379688   96.040321
H   66.500290   97.232452   55.891380
H   56.408710   28.021402   64.719566
H   57.689621   69.909294   18.020967
H   92.364525   78.991310   61.949230
H   43.302769   63.600494   86.840805
H   59.188587   69.587677   65.958641
H   74.634407   40.389465   18.760239
H    3.286053   55.487968   71.699982
H   88.392838   36.394920   27.309893
H   97.532608    9.200277   84.712524
H   97.216835   98.077446   57.480843
H   90.011711   77.520111   31.904846
H   40.287552   72.708847   68.121666
H   49.830666   71.445526   73.448250
H   59.666817   31.152676   67.236588
H   86.405113   98.436172   51.923347
H   89.271690   90.967705   16.094070
H   60.718864   59.038513   41.076115
H   58.146816    7.660869   90.777092
H    6.607120   84.682808   33.618942
H   33.233955   57.955616   20.110064
H   61.392189   98.832214   17.746931
H   14.893604   22.010338   61.417110
H   94.610168    7.583801   95.058014
H   21.370647   79.712776   24.122574
H   12.586522   46.319061   88.714386
H    0.301026   61.503368   80.469231
H   60.430515   48.776161   14.806023
H   15.010486   33.157330   41.705845
H    0.595853   10.739515   82.628448
H   54.771053   51.792763   47.112614
H   80.912689   43.442326   89.506790
H   13.526740   44.207439   53.050552
H   44.062630   36.308681   47.822830
H   72.913254   62.076763   69.452286
H   79.173294   64.930069   21.704218
H   18.364622   60.169861   31.826633
H   68.240005   83.422577   73.885742
H   97.976028   50.600048   40.456413
H   78.334900   25.492992   61.917629
H   78.871849   72.868095   74.701111
H    6.984247   51.496460   62.775505
H   21.469852   17.671812    2.265031
H   86.067993   78.853592   37.537537
H   53.752075   44.602161    0.406333
H   12.839962   33.907646   93.927574
H   88.657837   22.632383   64.145409
H   53.621014    5.516109   40.555351
H    1.781701   65.781311   88.930717
H   55.750595   70.551521    3.714207
H   10.982900   49.600307   54.880089
H   18.502981   43.228333    5.313652
H   57.701927   50.514919   79.516319
H   36.111591   97.287666   92.363266
