100
TIME:    6.110, STEP:  6110
H    4.128351   61.704033   93.552139
H   31.730942   35.956051   63.362019
H   84.789154   13.481944   51.622730
H   82.502151   80.917877    5.252227
H   40.444336   62.500870    0.038999
H   33.271023   94.588676   83.840294
H   32.745525   73.914864   68.263039
H   39.652344   17.195049   47.194454
H    3.432461   98.841690   15.483804
H    7.874537    4.114220   46.948948
H   31.917709   12.091545   51.202911
H   22.638756   29.953159   58.012444
H   54.175095   92.106163   17.901299
H   52.549965   86.243141   22.213528
H   54.817970   24.257530   57.071621
H   55.854218   77.326027   25.857841
H   32.777351   86.099831   29.605749
H   31.726477   97.526642   87.721230
H   40.431744   34.675621   85.260651
H   27.903343   76.058632   32.329796
H    1.700663   47.948048   91.407707
H   48.151993   52.195099   98.955368
H    4.165308   44.929985   57.536362
H   51.351368    9.921602   53.292339
H   11.056079    1.605339   81.663612
H   18.693495   46.033234   15.860825
H   35.206558   88.491531   21.198195
H   16.997997   41.633842   68.739182
H   44.027184    3.439277   68.349213
H   35.276936   39.617424   69.116104
H   56.523979   69.950310   25.975182
H   51.546329   83.698730   33.630730
H    0.736621   21.445505   48.234009
H   36.264412   13.777596   14.346807
H   28.893795   97.049965   96.784424
H    3.769780   63.990181    0.216362
H   65.826607   80.773560   89.909523
H   11.455944   47.138821   53.606327
H   87.167053   48.289543   52.207741
H   87.699646   40.185612   18.756124
H   17.676414   65.829445   86.294655
H   85.296387   65.563507   91.886101
H   63.869846    0.139851   42.805603
H   89.199814   15.198996   78.138878
H   26.658848   90.823166   78.959335
H   99.256676   79.455734    7.983748
H   89.469040   57.120743   84.115288
H   56.565723   58.300995   46.630085
H   43.630203   26.419785    0.742488
H   54.022961   23.729467   56.321564
H   43.082050   79.762268   17.836090
H    2.067690   96.776825   72.952614
H   35.612186   57.436584   48.010189
H   35.197868    7.510293    1.434661
H   54.307823   94.055832   52.317707
H    1.205757    6.106596   84.627975
H   83.599174   13.245416   37.099373
H   71.092438   99.873055   56.176132
H   72.158752   96.931023   42.417351
H   55.820724   97.422195   89.827660
H   45.124439   94.429092   38.011997
H   82.062080   71.071060   18.895134
H   88.868401   90.347328   14.489410
H   62.603714   75.046875   61.256367
H   74.840393   72.849411   64.566734
H   25.999207   38.526787    7.454450
H   97.351303   59.598660   62.053116
H   58.306282   66.974709   58.295933
H   61.425488   10.760689   77.024719
H   54.170898   55.458595   88.867218
H   28.013153   79.676498   88.854805
H   70.168839   48.746033    3.966983
H    8.607487   16.081406    5.085487
H   95.706200   62.715816   40.117577
H   56.757366   37.351818   64.577530
H   70.104744   99.165947   84.803772
H   21.702999   96.971535   99.106331
H   19.039242   51.203148   51.873268
H   54.508274   35.571728   85.851311
H   99.885422   76.178871   94.539299
H   30.435526   92.492416   45.169071
H   99.785446   84.095001   75.839409
H    4.345026    9.299506   11.828468
H   70.506889   35.005394    5.363625
H   54.823082   66.702400   55.456390
H   10.667072   33.483986   66.080139
H   75.227806   59.106010   14.891882
H   54.294609   16.144934   32.226593
H   82.482529   53.976982   78.218880
H   26.132330   57.895763   42.634506
H   74.069023    3.354775   62.493816
H   30.377024   55.009567   49.944466
H   77.116302   10.848722   91.500259
H   37.775333   83.859810   38.786865
H   50.954048    2.432246   56.487156
H   98.582504   54.454132   51.859543
H   77.619408   18.320704   85.797455
H   26.483614   88.781448   56.221611
H   17.646545   63.188107   33.260727
H   18.727320   21.842762    9.144336
