100
TIME:    1.800, STEP:  1800
H   95.596100   56.952133   97.498062
H   51.199989    2.337446   91.543755
H   10.695227    3.403715    2.205394
H   81.778732   58.490318   41.499302
H   79.048615   17.035450   16.899395
H    0.103799   99.258018   57.006443
H   58.630978   82.882393   31.215202
H   78.409843   44.324368   42.924355
H    9.380562   13.230825   86.783501
H   25.650217   42.228691   78.176720
H   32.823410   38.669270   66.363464
H   87.139008   13.915167   64.803047
H   28.764744   52.804924   46.223312
H   65.956139   99.527748   94.220207
H    2.394053    9.244133   64.249924
H   29.150940   54.295715   83.625748
H   79.350159    1.033864   37.240372
H   39.609665    7.166601   37.143845
H   73.297722   53.867157   58.191944
H   44.022308   67.586777   38.884987
H   57.462082   77.022034    8.389610
H   34.943668   46.475731   65.989296
H   61.711433   79.982933   80.849655
H   51.802025   58.269901   73.391296
H   65.205559   43.417458   49.842819
H   38.405506   73.973068   20.458597
H    6.862389   67.655228   35.685322
H   80.662857   40.457623   26.270323
H   50.310196   12.402247   72.085472
H   70.013405   46.290085   26.483109
H   86.908638   83.460083   66.975830
H   79.410339    2.782310   32.629036
H   97.146683   36.785240   59.955170
H   54.155724    8.763464   95.920670
H   36.030006   22.854103   34.335678
H   29.058048   25.882998   14.451859
H   52.441933   38.617043   50.298222
H   89.594231   26.008999   49.461666
H   69.800644   42.083305   69.606293
H   93.653694   43.673458   79.654922
H   12.231750   17.945829   84.751755
H   69.847443   92.642067   87.367203
H   26.745291   74.294006   31.489574
H   64.417061   42.938744   56.727787
H    0.519287   60.869762   10.140791
H   54.865047   97.249031   90.479713
H   55.086414   22.840250   43.004097
H   56.335545   13.916063   79.951744
H   17.646971   83.373314   72.672897
H   63.641552   58.146549   57.769199
H   43.407291   95.864769   72.395767
H   92.610130   96.712219   55.896381
H   46.218597   32.445740   98.327995
H   35.008694   77.838905   11.245844
H   97.461395   16.302225   15.680422
H   95.818436   10.640234   31.350555
H   10.364754   37.608925   27.182531
H   92.025482    6.899579   67.191727
H   32.238922   14.822671   73.297180
H   40.236881   66.143005   12.413533
H   73.245987   94.864326   74.052910
H   35.025635   11.190222   13.909276
H   96.325180   84.406532   10.071223
H   66.643372   51.586044   78.271736
H    3.766265   17.080757   63.192684
H   90.768532   52.789680   52.615398
H   43.151535   10.594314   53.966625
H   56.027489   20.481228   52.253010
H   46.614883   20.449799   47.340385
H   66.848938   38.677872   97.942841
H   64.874275   72.928688   40.559269
H   25.549173   91.786438   88.409325
H   89.627899   29.270992   15.593433
H   90.576103   35.471840   96.229210
H   48.956139   31.204885   37.850567
H   68.214561   22.935339   74.811668
H   30.382956   70.535873   22.882284
H   16.547604   33.022758   13.846398
H   47.832489   48.229343   37.761070
H   11.250105   10.921659   65.849586
H   46.106655   47.903484   87.570763
H   76.379562   55.982925   36.263016
H   31.688747   37.300293    1.341074
H   73.994637   66.189919   99.019806
H   64.684418   36.293373   73.262665
H    9.861889   75.173073   66.780708
H   87.372643   72.478256    9.374153
H   84.931610   61.182220   77.031502
H   93.036812   93.951500   13.473146
H    7.193821   35.218765   88.563484
H   97.685921   70.625137   71.474442
H   11.468941   30.882589   67.817802
H    0.776073   81.565536   58.168106
H   21.204304   22.415533   48.182861
H   25.471432   88.496338   57.448479
H   42.594223   24.650850   74.476532
H   19.726864   70.978828   33.669739
H   13.474128   31.563599   27.236015
H   22.964706   44.609386   94.273880
H   51.027451   32.467983   24.320198
