100
TIME:    9.613, STEP:  9613
H   67.234039   40.463539   90.345047
H   34.987839   25.778194   84.235649
H   45.009502   65.501625   10.497866
H   83.090118   36.595757   13.240796
H    9.058516   43.281326    5.058640
H   78.949829   90.793617   30.753124
H   49.151951   10.453151   42.202297
H   64.323456   20.248943   25.559784
H   17.321983   62.041199   94.982979
H   12.192430   54.413441   84.108559
H    6.077159   53.040939   13.774443
H   88.939171    5.540617    8.665520
H   30.760651   80.126167   69.793488
H   79.103455   75.445930   88.793327
H   97.365486   11.352272   88.611351
H   15.004902   70.940781   35.078186
H   51.086769   17.796608   48.497665
H    6.635382   27.070168   66.290604
H   94.994217   81.630692   69.811920
H   33.524456    1.671041   70.830345
H   93.827179   99.212898   96.329819
H   83.988022   56.845383    0.642554
H   57.394798   16.447615   57.311523
H   25.871220   51.827606   93.129059
H   85.768906   23.801338    7.530460
H    2.278884   42.712265   86.255913
H   33.138939   42.876263   90.701645
H   21.424913    5.142049   84.527214
H   20.196758   21.258543    2.761037
H   69.598213   52.917801   47.594246
H   94.386986   84.071930   48.829132
H   72.728043   86.914841    9.340477
H   47.484825   65.149551   63.811913
H   84.273895   92.748680   66.771019
H   41.714836   31.830971    9.914886
H    8.279272   38.365070   89.205238
H    1.811193   52.486580   65.932144
H   66.666847   83.032341    0.804880
H   39.304638   71.966331   12.741421
H   57.755543   12.245515   94.365311
H   78.271210   86.027908   68.822594
H   90.082344   79.301132   70.718742
H   94.016632   21.154861   95.830284
H   65.528847   74.003151   20.641788
H   22.797430   52.622440   78.723160
H   54.042564   46.264080   22.215219
H   16.848026   47.628620   17.746500
H   56.774349   94.380783   63.375141
H   46.026268   36.301418   61.009590
H   27.560034   77.055992   11.391521
H   44.808475   41.718788   51.743652
H   72.320770   71.724731   43.002602
H    8.265476   77.748169   44.564857
H   54.073311   50.361572   56.011116
H   75.393379    1.041643   82.100693
H    5.568739    2.421781   65.377579
H    5.675303   12.167494   70.263725
H   10.252372   69.057823   65.946312
H   48.436825   44.954567   73.495979
H   24.660305   66.676407   90.194008
H   66.099884   31.522623   64.896980
H   57.733757   38.465622   60.399330
H   26.689236   51.312851   74.279770
H    3.146882   94.129074   66.149719
H   13.878627   93.068184   90.785149
H   10.808016   64.382896   14.580392
H   16.299469   80.707611   31.178535
H   16.330292   67.315132   25.759598
H   36.012924   59.057465   57.323437
H   25.260010   31.480394   81.454605
H   16.768383   41.329082   46.841896
H   81.659660   32.411522   60.673595
H   80.206619   42.811459   15.270832
H   18.591373   41.013248   31.981150
H   25.538225   42.469875   30.165609
H   52.917206   23.675503   49.095795
H   39.848579   93.770187   61.234032
H   83.608253   22.158302   45.340797
H   22.492231   25.282307   24.938738
H   28.094475   85.353249   92.752785
H   99.006096   28.733255   54.539345
H   62.646461    6.819053   82.779930
H   25.916536   67.881630   45.437038
H   11.508580   34.764847   85.418388
H   84.258514   47.568459   15.881598
H   30.047688   62.157768    9.339147
H    9.185457    4.408503   81.928062
H   10.631653   35.835426   95.909225
H   55.182133   58.935677   49.568855
H   16.420286   13.770363   67.856003
H   17.426901   92.504639   36.471092
H   89.563553   18.468977   16.693430
H    1.665452   15.951963   62.392632
H   74.355629   96.232590   78.009727
H   90.386810   88.655403   36.981178
H   87.915955   16.125559   70.924911
H   99.567986   19.348679   84.335419
H   19.721994   62.110020   85.894676
H   50.771812   78.313454   39.848392
H   36.311615   31.950336   71.689804
