100
TIME:    3.697, STEP:  3697
H   67.309235   82.987640   95.761307
H   98.430733    5.189447   11.205420
H   43.302811   39.880562   79.944939
H   82.097137   80.333366   37.517857
H   62.057358   69.088356   65.463745
H   70.694710   97.202858   44.872543
H   59.209080   10.976021   79.563148
H   29.309387    8.440038   68.748512
H   62.748619   30.842010   67.375267
H   73.811653   69.466805   52.462013
H   56.369095   14.999105   83.635490
H   14.735405    9.002108   29.772070
H    8.096795   38.033859   57.676567
H   72.027229   93.680672   38.583759
H   25.470814   39.796097   73.062141
H   52.876389   88.375847   26.158278
H   26.816505   26.498745    9.940847
H   80.142662   14.915721   71.375183
H    2.850661   33.447250   58.133068
H   92.916283   27.306395   68.041588
H   44.891495   88.169128   56.898010
H   16.815338   48.991806    4.444574
H   36.383751   64.554756   26.575325
H   75.550133   81.021393   32.502003
H   97.358917   92.968231   63.842995
H   29.705347   17.451738   42.650810
H   43.282558   88.797134   73.325905
H   20.600019   29.003159   88.974388
H   91.558136   84.512924   82.413460
H   42.752075   99.338585   77.289642
H   61.557529   53.572079   16.884071
H   99.188179   50.365685   57.014244
H   30.768785   97.992683   30.851912
H   34.309158   34.914680   16.002426
H   88.873169   79.455193   49.848907
H   93.999855   74.904755    7.925429
H   34.389641   69.143539   99.774590
H   11.189254   91.292381   83.328392
H   89.020660    0.867575   86.045723
H   14.977707   66.083405   28.906168
H   82.588287   83.036530   29.445417
H   99.355820   77.782394   76.489624
H   43.085262   85.669754   68.510826
H   43.280167   74.730957   42.206902
H   35.968433   86.026642   72.472961
H   30.391270   33.431416   98.179329
H   70.617477   25.893639   60.953430
H   56.436855   33.447861   97.327370
H   73.095261   26.264153   96.998352
H    3.414615   87.008568   25.091557
H   43.262562   12.721909   92.397400
H   84.800385   20.684937   31.360821
H   85.562645   43.445190   88.153481
H   91.080315   46.887711   94.955658
H   46.432907   82.582214   31.790953
H   98.192001    8.645422   66.772202
H   30.625566   82.871193    7.602911
H   50.769768   27.751827   18.328983
H   81.851158   94.975433   27.662079
H   15.055682   11.951147   58.459114
H   92.909889    6.645446   26.148830
H   67.700859   93.530930   28.076630
H   25.049231   55.006645   79.956078
H   96.905449   61.905266   26.766476
H   79.063576   65.571815   39.854954
H   74.232643   58.483986   64.779297
H   90.950912   76.176056   45.553936
H   24.988853   28.973143   42.940578
H   41.160736   84.143494   28.363010
H    5.288038   34.090675   93.948303
H    4.635204   43.856255   17.800037
H   69.131699   28.829056   27.298382
H   65.940186   35.437229   66.959709
H   48.827618   15.425529   83.491203
H   40.418537   33.909199   81.655434
H   13.055202   44.516075   47.167866
H    2.618174    6.114834   56.432575
H    5.672114    8.982328   18.610666
H   38.796883   42.659473   58.932823
H   18.217628    7.606678    2.421437
H   83.222305   67.528824    0.950344
H   18.714287   68.371780   77.636475
H   51.708210   68.967133   82.020935
H    4.498346   28.519566   25.753227
H   72.315979   17.634403   89.369812
H   66.208496   44.851944   98.513962
H   14.069006   34.550911   99.830429
H   15.465895    9.303490   57.295303
H   32.408066   88.329506   97.954109
H   39.474110   57.172760   56.374474
H   75.319061   73.057869   11.535684
H   51.835739   73.538628    3.970745
H   22.438793   38.445763    4.899172
H    4.556241   37.482994   76.087563
H   92.670494   18.574528    1.040948
H   99.278595   49.740425   76.493996
H   69.151917   79.843941   24.571627
H   20.436934   47.715424   96.880119
H   32.596733   52.786610   35.374565
H   68.844627   83.762062   41.596245
