100
TIME:    0.417, STEP:   417
H   89.122719   83.780342   98.764236
H   89.670586   27.353794    4.304703
H   86.929077    3.904854   18.443604
H   81.546600   15.469591   17.305727
H   91.436020    6.181909   54.398445
H   21.550022    0.759797   20.042204
H   31.115967   89.495155   23.062716
H   87.110916   24.677982   69.907280
H   43.377342   46.200592   73.839287
H   63.444633   22.373417   24.018877
H   61.466705   83.021515   99.582283
H   39.925312   44.592644   63.246468
H   16.737350   36.478424   83.682335
H   34.434452    3.791560   88.973625
H   85.574394   32.775269   30.727125
H   84.757095   75.263985   98.425278
H   90.540382    9.573868   11.321929
H   10.055577   74.421890   85.089645
H   51.757652   95.845657   85.331924
H   81.361580   96.788849   44.636604
H   39.531174   14.703308   45.924446
H    2.332419   44.650330   83.748970
H   80.176476   91.230782   20.419262
H   80.297699   41.683018   76.105377
H   14.669401   53.103283   39.637833
H   44.746929   15.184318   50.087631
H   26.120024   25.142441    8.240995
H   97.356224   75.903336   80.558578
H   20.238556   86.925682   37.459839
H   16.983301   80.518997   16.538914
H   32.505344   59.437035   76.414024
H   92.087097   40.989853   60.660301
H   99.730042   37.972099   35.363609
H   95.721062   35.507050   54.183479
H   70.406639   27.398300   50.120010
H    8.811421   17.243193   19.209494
H   19.795074   89.264015   41.323193
H   46.754097   51.321934   51.867054
H   31.973068   71.606270    2.158621
H   23.917034   73.145683   70.843681
H    6.745129   70.487602   52.165035
H   94.143578   30.572741   22.391363
H   14.832959   66.000565   31.593803
H   52.730927   19.759989   21.503956
H   20.484158   15.439069   91.790955
H   72.625679   71.043266   84.953560
H   40.483204   48.236446   31.186468
H   56.261684   99.676605   94.379562
H   77.218193   97.914047   27.839273
H   34.635609   37.096401   54.498367
H   43.512806   29.385248   57.813663
H   25.397894   25.044125   46.687363
H   17.529200   24.426636   78.651985
H   67.031357    0.398060   50.217182
H    7.561604   95.060989    3.944572
H   94.087997   12.093697   78.431137
H   22.688095   77.514519   95.647514
H   95.008240   37.506355    2.813648
H   23.165047   56.388016   79.470673
H   31.500923   59.840912   51.749107
H   86.005112   59.176926   81.882874
H   84.110992   24.063980   76.487747
H    2.517134   78.717094    4.950143
H   71.674873   44.062859   15.818251
H   48.874298   27.538738   34.395363
H   75.728432   21.542805   70.842155
H   54.112114   62.776943   87.194626
H   51.560783   41.386276   86.137611
H   77.686150   19.823357   34.079044
H   38.833755   69.118797    0.853876
H    8.790255   67.031929   57.146152
H   39.583462   37.686180   87.152504
H   79.802399   97.681252   51.056866
H   21.012459   22.990782   78.425056
H   82.276657   29.237040   33.009815
H   35.516972   34.298126   67.869675
H    4.815464   90.401726   98.412415
H   51.571747   23.453781   37.469784
H   81.540810   52.280842   22.338154
H   79.075027   86.243889   84.996307
H   19.042179   33.595715    4.912060
H   72.611687   46.950882   51.910576
H   44.180561   14.217576   69.617065
H   78.855988   47.844822   25.341805
H   32.025787   22.799889    7.328994
H   41.695621   24.370945   70.740974
H   95.005196   73.033623   43.427319
H   62.668045   71.908012   91.404655
H   64.336861   70.954323   24.788990
H   29.467731   92.127960   39.119381
H   41.087925   95.948868   42.268017
H    9.140556   26.868189   41.469299
H   12.039585   40.125511   51.175194
H   87.532295   38.526772   54.933895
H   49.382465   12.376743   25.668556
H   28.364105   79.264458   45.910423
H   29.502554   91.611305   13.206930
H    8.396241   19.788177   49.363548
H   88.847252   38.647816   10.122250
H   65.138596   67.993538   57.523056
