100
TIME:    0.613, STEP:   613
H   75.867836   65.806099   98.584793
H   84.218498   37.980999   16.667997
H   90.296631   18.005684   16.142242
H   81.579498    7.393892    6.562000
H   89.680466   21.892174   49.083931
H   18.510700    0.546474   39.453030
H   20.843582    2.729365   38.390171
H   71.705704   41.633884   51.911095
H   38.559288   27.356049   61.502251
H   58.088249   25.186939   31.694567
H   43.235260   90.908051   80.701851
H   32.444019   54.417168   49.294746
H    4.270071   24.620209   64.200768
H   24.729557    3.187247    3.888730
H   87.958000   15.268374   21.305601
H   76.876541   58.120647   82.155746
H   74.782265   22.535660   29.166922
H   14.243711   64.890457   78.294724
H   54.809685    4.067803   95.658890
H   76.056038   92.679596   58.008125
H   27.900253   95.190765   40.605446
H   21.126392   44.909027   67.060738
H   77.559593   89.636726   14.810989
H   62.087189   44.033726   61.549278
H    7.659904   37.559002   41.085342
H   43.848217    9.344558   31.717104
H    9.218702   16.994965   12.130430
H   80.817528   85.051956   87.036484
H   24.500336    4.708402   28.194889
H   24.498240   75.668045   32.119839
H   40.215427   77.013512   60.904137
H    4.462478   35.575150   42.515587
H   13.536314   23.632021   53.020836
H    4.002550   17.544769   45.926094
H   65.534752   12.582173   62.054489
H   25.853306   32.640148   18.535086
H   38.593746   82.086281   56.767284
H   38.653725   47.734562   65.697838
H   23.161652   67.422249   83.373749
H    5.456051   54.796848   86.263847
H   93.350433   77.213737   56.784206
H   76.528221   39.369949   31.599798
H   16.520964   67.175919   45.750412
H   40.214752   23.044550   40.668098
H    3.482650    7.706182    8.563314
H   70.122444   74.727837   85.722176
H   42.552784   58.810146   32.861275
H   56.272152    1.694768    6.506873
H   82.948418   81.680405   20.020777
H   38.746357   40.079647   40.790390
H   43.497852   10.462198   59.880253
H   34.922829    6.856781   33.819778
H   21.595087   25.563110   67.269295
H   62.493931   97.200829   58.866352
H   91.958435   12.243303    5.607784
H   94.333237   11.887711   71.758835
H   35.113052   71.859062   14.288960
H   80.413513   18.996773   97.765091
H   38.622597   64.669327   64.424347
H   18.567543   74.905594   46.174400
H   98.368759   50.062698   66.600281
H   77.154572   22.239639   67.620255
H   15.812017   65.351555   91.503761
H   85.133125   45.129051   10.496260
H   56.654663   11.884449   52.649239
H   63.687782   11.799030   82.431206
H   38.386894   69.553650   96.657272
H   38.021782   52.595505   95.507545
H   87.453850    5.740044   21.785679
H   42.803940   78.976219    0.441717
H    2.565977   53.695141   54.795444
H   23.422693   31.181358    1.502077
H   67.023041   87.985329   46.030956
H   16.698341   10.587343   66.776192
H   91.727341   29.515924   47.867725
H   40.151096   46.860657   54.681644
H   22.611046   73.414421    1.881020
H   60.780182   10.637787   48.294704
H   90.934669   51.706882   24.523624
H   69.462845   75.570000   68.110687
H   22.877781   35.623425   16.626328
H   87.317070   48.230911   35.519920
H   56.581593   17.488882   88.285156
H   92.338165   64.616798    7.439339
H   22.481646   10.539588   88.329063
H   37.184116   31.570362   84.351753
H    8.095617   58.782829   52.773327
H   65.823257   56.215691   89.367973
H   68.404243   60.041176   23.185215
H   12.138737   84.061981   46.126644
H   49.109043    6.532472   46.407177
H   23.642748   41.609200   45.203217
H   24.614826   45.997795   66.338158
H    6.475960   50.416389   68.148872
H   45.993977   94.820221   30.171837
H   44.552887   71.524467   35.786827
H   13.945513    2.859341    1.934606
H    9.115884   21.457001   46.227776
H   79.510216   39.492695   93.704018
H   77.310837   62.959843   38.645615
