100
TIME:    2.190, STEP:  2190
H   69.221588   21.187057   97.141006
H   40.351448   23.482679   16.144430
H   17.398947   31.460857   97.628090
H   81.844193   42.422813   20.121422
H   75.555420   48.295673    6.325403
H   94.057625   98.835503   95.628502
H   38.192516    9.216133   61.713707
H   47.756615   78.064392    7.114832
H   99.793556   75.733780   62.235706
H   14.993593   47.828514   93.446800
H   96.546570   54.361866   28.797918
H   72.255737   33.463882   37.041969
H    3.957114   29.209496    7.461161
H   46.645378   98.325661   23.899860
H    7.138121   74.407684   45.501564
H   13.469326   20.183846   51.252701
H   47.994720   26.825203   72.747314
H   47.943939   88.200813   23.622414
H   79.373619   70.228104   78.739655
H   33.515945   59.304775   65.438026
H   34.318924   38.196201   97.804108
H   72.337784   46.991241   32.779526
H   56.504372   76.811089   69.691666
H   15.566826   62.947330   44.426117
H   51.256584   12.487511   52.720093
H   36.617252   62.351330   83.903145
H   73.233376   51.442593   43.424503
H   47.755699   58.661510   39.161495
H   58.790268   47.785713   53.649498
H   84.968086   36.637680   57.487179
H    2.250392   18.434446   36.117008
H    4.035190   92.005852   96.524818
H   24.617928    8.251781   95.089447
H   70.633842   73.022354   79.490158
H   26.335075   93.372803   58.082855
H   62.966564   56.521053   13.111413
H   89.848541   24.334017   81.028809
H   73.473167   18.870861   76.983131
H   52.633743   33.698975   32.084541
H   56.919193    7.162374   10.338411
H   85.578911   31.327978   93.939987
H   34.796478   10.145207    5.689801
H   30.104589   76.632721   59.658318
H   39.512428   49.475838   94.860764
H   66.688286   45.483639   43.515594
H   49.833538    4.687672   92.062660
H   58.839008   43.937775   46.478081
H   56.356373   17.931452    4.082725
H   29.045973   51.072872   57.115852
H   71.818260   64.082558   30.493122
H   43.377537   58.213249   76.507858
H   11.562933   60.524342   30.292515
H   54.308884   34.707092   75.678764
H   25.978161   71.477364   28.454439
H   66.415405   50.492596   18.989210
H   96.306412   10.230364   18.074036
H   35.088055   26.355721   64.274666
H   62.984955   70.069077   57.146561
H   62.996292   31.302225   43.356010
H   14.502050   96.117828    1.321708
H   97.847122   76.725899   43.645664
H   21.184940    7.559412   96.262848
H   22.778759   57.811836   83.315598
H   93.422546   53.707550   67.685036
H   19.246216   85.932495   99.511261
H   66.810097   33.401558   75.675240
H   11.860598   24.077330   72.795364
H   29.087639   42.786072   70.897263
H   66.053276   92.426903   22.879097
H   74.751770   58.295105   97.121613
H   52.490395   46.392311   35.881084
H   93.391907   78.843170   16.962835
H   64.199585    9.981060    5.592899
H   81.994865   10.791490   73.050346
H   67.758690   31.759809   67.414780
H   77.432549   47.931671   48.569828
H   65.793732   36.732201   29.780897
H   34.870510    7.521479   35.385708
H   66.529266   47.086010   42.111984
H   92.123543   89.682007   32.250648
H   53.738720   51.938213   10.880169
H    5.640705   58.529922    3.650639
H   56.364269   43.810608   38.486485
H    0.821492   99.562721   63.397552
H   45.695007   11.897671   35.456421
H    0.885210   89.496956   93.863380
H   13.419882   44.122086   27.971067
H   91.209839   29.957703   72.972969
H    1.130233   72.236565   10.282705
H   72.713699   19.172089    2.506144
H   13.646484   91.685471   79.710526
H   40.326466   60.212803   75.250511
H   25.798256   93.253159   88.339310
H   58.900455   46.072842   74.478218
H   18.727543   53.563499   66.410576
H   74.806595    9.251011   54.332642
H   88.770706   93.360268   11.240534
H   14.906070   34.884216   20.994980
H    4.386932   46.290524   61.603508
H   75.247726   22.451015   86.757233
