100
TIME:    1.442, STEP:  1442
H   19.805780   89.782639   97.825821
H   61.158394   82.928459   68.961174
H    4.541436   77.647499    6.408295
H   81.718643   73.239464   61.123859
H   82.255188   88.340187   26.605705
H    5.655465   99.645866   21.551538
H   77.394386   58.709583    3.219080
H    6.547943   13.353834   75.794853
H   18.180885   47.651016    9.317761
H   35.432930   37.088341   64.159569
H   66.123703   24.264271    0.849113
H    0.801238   95.970894   90.286293
H   51.535980   74.464317   81.805626
H   83.682426    0.631356   66.977989
H   98.039680   41.220852   81.457260
H   43.545013   85.608452   13.342332
H    8.132805   77.358749    4.646470
H   31.959229   24.576385   49.554977
H   67.720360   38.847610   39.332157
H   53.666611   75.190781   14.510660
H   78.706314   12.661255   18.106293
H    0.616092   46.003212   96.470863
H   66.491249   82.894524   91.092117
H   85.064079   53.976261   99.977997
H   78.010002   71.810310   47.201630
H   40.047031   84.641617   54.013374
H   37.733421   82.535477   28.581152
H   10.870399   23.747387   14.436866
H   42.525925   79.921631   89.008751
H   56.285778   55.150497   98.023918
H   72.825935   51.356110   95.305115
H   56.805912   12.672935   65.770912
H   71.931107   62.978630   27.703703
H   39.029655   41.571968   11.002399
H   44.928658   49.916054   12.536987
H   97.930634   97.759964   15.682439
H   18.105915   51.727394   22.089117
H    4.391920   32.561443   24.199657
H   85.893600   49.725548    3.917429
H   27.373484   77.188454   51.488300
H   36.696213    5.661769   76.317429
H    2.022443   76.576424   70.547714
H   23.661627   72.147186    5.631014
H   87.278236   36.938026   21.725477
H   31.573048   74.995560   79.505814
H   59.483715   90.420723   89.026649
H   51.306263    3.527426   39.945015
H   56.316425   10.230143   57.800716
H    7.183244   13.023422   86.952255
H   56.133144   52.697559   82.809288
H   43.434605   30.428122   68.621078
H   75.211601   29.931883   79.397629
H   38.792130   30.369934   19.120110
H   43.298260   83.678474   95.448807
H   25.962158   84.918533   12.642508
H   95.370499   11.016474   43.537720
H   87.668396   47.938789   93.133553
H   18.683094   40.708855   76.412674
H    4.005233   99.695892    0.779800
H   63.860096   38.625134   22.595665
H   50.663403   11.513053    1.966881
H   47.731750   14.523119   30.108665
H   72.043716    8.819481   34.631447
H   42.059021   49.638611   87.989784
H   89.557518   45.674267   29.851511
H   12.760851   70.586983   31.447645
H   71.874130   98.217499   36.682812
H   80.756889    0.005966   35.138538
H   28.771149   46.173401   69.793892
H   59.596199   20.671118   98.696686
H   76.242043   97.286629   44.852909
H   55.066883    3.667908   62.199356
H   12.970459   46.978161   24.773411
H   98.453239   58.128166   17.506248
H   31.696884   30.695494   10.711067
H   59.751553   99.990746   98.901939
H   97.878868    1.563772   16.549623
H   99.728104   56.432930   94.075546
H   30.671587   49.278172   33.767876
H   28.807236   30.419210   96.691689
H   39.100811   44.199810   66.173576
H   49.518261   53.644913   66.198318
H    9.037662   31.324312   67.243256
H   49.367405   35.555401   31.719215
H   82.115723   58.687492    7.966719
H   18.102291   62.024075   41.920204
H   63.462639   98.507767   92.303131
H   79.168518   89.844727   80.753639
H   85.607613   13.884187   16.401901
H   38.846245   49.948792   75.764503
H   83.035103   51.294628   63.914135
H   84.980354    3.958570   60.996162
H   77.805687   70.836899   30.472414
H   86.602486    0.700054   24.045708
H   31.661976   20.563744   49.221733
H   13.024918   38.787468   92.967590
H   48.142960   50.433819   54.258453
H   12.159678   28.515442   32.964737
H   40.018364   43.066189   24.261684
H   28.794479   41.664349   58.800728
