100
TIME:    3.880, STEP:  3880
H   54.933502   66.205566   95.593765
H   93.340263   15.111444   22.748884
H   46.448402   53.046532   77.797615
H   82.127853   72.793999   27.486624
H   60.418243   83.756615   60.501724
H   67.857674   97.004601   62.996346
H   49.618725   23.333462   93.873985
H   14.925949   24.271481   51.945889
H   58.250130   13.247305   55.855801
H   68.810539   72.094414   59.628601
H   39.346878   22.362507   66.007332
H    7.750320   18.174738   16.746416
H   96.456070   26.962158   39.488541
H   62.966026   93.116615   52.510647
H   27.697021   23.449997   64.266212
H   45.518524   72.370049   10.967150
H   12.100684   38.602222   26.600058
H   84.051964    6.016165   65.030945
H    5.700787   41.124840   67.774231
H   87.984978   23.420130   80.501091
H   34.032013   69.951782   51.931801
H   34.359726   49.234741   88.860458
H   33.940437   63.066429   21.338955
H   58.547462   83.216187   18.910198
H   90.813629   78.456345   65.194496
H   28.865545   11.999217   25.498484
H   27.501745   81.190750   76.955971
H    5.159221   37.544983   95.022636
H   95.537247    1.116260   73.762733
H   49.769272   94.809380   91.837830
H   68.759499   69.981880    2.405693
H   10.742726   45.310120   40.073006
H   43.659641   84.603325   47.337997
H   42.041199   18.143776    8.293423
H   84.324417   65.621849   60.991814
H    9.913088   89.279816    7.293833
H   51.941010   62.441879   14.194003
H    3.625802   87.944344   96.243050
H   81.296997   96.880241   68.311455
H   97.741112   48.951057   43.304813
H   70.081314   89.316544   33.756817
H   82.908829   85.994720   85.087296
H   44.661549   86.767151   81.729851
H   31.594172   77.796967   60.099487
H   20.094748   78.805603   88.132507
H   28.030331   36.921864   98.922096
H   72.047165   35.846031   62.711220
H   56.446629   35.332703    8.650291
H   78.445419   11.108627   89.699127
H    7.252711   89.792549   12.292782
H   43.248600   95.054176   94.326920
H   93.694046    3.703863   19.346699
H   89.357460   44.506287   77.525764
H   86.841515   43.901283    3.030909
H   31.862381   98.621521   33.347599
H   98.420975    8.452749   60.542450
H   42.226421   77.590843   25.007849
H   37.143059   10.469336   13.614962
H   96.284859    2.707646   13.613026
H    2.979779   26.017653   53.254158
H    4.453640   98.135155   11.881174
H   61.205833   91.827591   19.795891
H   37.473438   42.519218   67.407219
H    9.471674   62.900742   21.797474
H   86.326500   50.955364   56.896717
H   62.990608   49.386482   75.599686
H   76.268692   82.503540   54.388958
H   12.347746   39.439102   51.689037
H   50.281975   70.994278   16.885021
H    8.995592   43.295685   93.562958
H   98.824028   31.405094   15.604546
H   54.042717   22.755676   40.697269
H   54.008438   26.385799   62.268028
H   44.798244    3.844858   72.617760
H   49.240993   34.170284   95.527870
H   17.381723   56.245377   34.854961
H   19.233454   90.253952   59.668919
H   14.269786   97.016457   28.717607
H   47.571869   42.121944   60.975433
H    9.242725   97.640190   86.655815
H   86.802109   69.422043   11.887639
H   32.445709   69.566910   62.334351
H   63.286724   72.021973   99.450836
H   17.088392   44.179268    9.039420
H   63.405563    6.187429   71.629959
H   61.996952   51.574547   11.222266
H   26.291159   21.245323    8.556768
H   18.411135   94.652229   55.392311
H   36.205673   78.140190   96.457405
H   23.294165   49.643166   62.915573
H   82.808167   82.940025   15.400308
H   65.377136   87.299370    7.457878
H   34.168922   43.936935   19.050882
H   22.244244   48.584015   88.426994
H   89.506752    2.182050    5.245891
H   14.393722   42.513802   67.041862
H   54.626068   90.346001   14.046595
H   21.108496   49.273560   93.950935
H   23.878990   53.575451   20.045914
H   80.212318   79.065315   23.967009
