100
TIME:    2.856, STEP:  2856
H   24.182480   60.111565   96.531265
H   21.825478   59.594002   58.155598
H   28.846838   79.376328   89.813240
H   81.955978   14.982882   83.616394
H   69.590118    1.678507   88.267349
H   83.732674   98.113976   61.585987
H    3.288200   54.189438   13.795859
H   95.410324   35.682079   45.966007
H   83.422005   11.700705   20.311626
H   96.794914   57.391289   19.527040
H   34.596863   81.159988   64.644135
H   46.836258   66.847214   89.636223
H   61.590858   88.915283   41.265717
H   13.668632   96.272865   74.583534
H   15.239990   14.917974   13.486440
H   86.690399   61.932892   95.968117
H   94.444527   70.871857   33.381298
H   62.176315   55.813393    0.531008
H   89.749382   98.164413   13.828371
H   15.574310   45.163860   10.782343
H   94.797638   71.894135   79.725281
H   36.187851   47.875366   76.063507
H   47.612312   71.394554   50.637253
H   53.688171   70.934937   94.961708
H   27.436516   59.665215   57.633591
H   33.563465   42.509335   21.478842
H   15.802368   23.756018   56.640644
H   91.561119   89.748146   61.178234
H   73.271622    8.210876   22.167322
H   10.505513   20.154343   10.432613
H   28.456076   78.158173   83.421318
H   46.086708   73.601830   34.869820
H   71.531219   59.523628   55.087990
H   98.773399   11.987343   51.431900
H    9.778539   43.028503   98.640068
H   20.872555    8.838079   10.822343
H   53.726013   99.941879   33.506832
H   45.946686    6.681187   23.981754
H   24.519592   19.189379   67.544632
H   94.190323   44.814331   62.739536
H   40.064007   54.178104    9.632335
H   74.940147   40.037521   36.977921
H   35.841236   80.626526    7.765926
H   96.984772   60.639183   59.977692
H    8.919138   19.208874    0.506099
H   41.241268   17.390614   94.765846
H   64.047165   80.156403   52.875282
H   56.391941   24.788500   45.291008
H   48.511963   95.916252   30.546518
H   85.781334   74.214424   83.912140
H   43.326725   93.914795   83.530045
H   43.928425   98.723328   86.570641
H   68.123085   38.568787   36.997299
H   10.556789   60.612221   57.843658
H   13.393402    8.876319   24.639963
H   97.139725    9.530432   95.401825
H   77.309151    7.138124   27.616920
H   13.392737    7.173437   39.992508
H   15.523926   59.441845   92.226494
H   70.551224   47.310291   82.379158
H   39.859749   45.754040   91.719925
H   97.549583    1.359106   66.131470
H   67.955376   12.394571   37.625992
H   39.155800   57.330429   49.602161
H   45.682354   32.739750   61.535835
H   25.896461    0.292729   15.053875
H   58.426399   47.101017    4.949381
H   83.082222   80.874573    2.735915
H   99.243523   44.572380   81.109505
H   88.247375   91.791084   95.719208
H   31.342457    1.077041   27.889702
H   38.476913   56.740051   65.725922
H   20.775190   77.036247   88.518547
H   67.340752   68.647354   33.467979
H   99.871727   32.709347   17.902157
H   93.174034   90.615471    3.757617
H   26.260904   79.008194   41.559544
H   66.160400   63.975269   72.167221
H   98.469543   45.129757   49.545746
H   59.461739   53.411083   74.874283
H   66.770859   58.828289   50.684925
H   55.613815   62.879410   47.960793
H   98.498306   54.928223    1.919862
H   46.638142   56.553192    2.566041
H   13.265576   70.241058   70.895287
H   85.560120   13.959232   40.112606
H   57.900505   95.698448   59.728424
H    1.930666   76.636200   66.042244
H   14.952637   35.154137    4.834044
H   13.829432   91.770828   26.313404
H   40.901917   27.647980   93.775223
H   89.606155   10.294069   87.943291
H   68.529755   13.210194   39.863304
H   23.270779   86.470451   19.384457
H    7.211100   93.906006   81.715080
H   29.815506   82.951302   19.933075
H   35.906143   31.580379   72.938347
H   17.350683   40.554810   10.337887
H   72.660240   49.161388    5.817243
H   16.608767    5.345168   22.611696
