100
TIME:    0.537, STEP:   537
H   81.007484   72.775703   98.654373
H   86.332573   33.860119   11.874055
H   88.990845   12.538047   17.034607
H   81.566742   10.525286   10.727937
H   90.361191   15.800439   51.144661
H   19.689213    0.629191   31.926207
H   24.826752   97.597572   32.446873
H   77.679153   35.059147   58.889397
H   40.427513   34.663116   66.286186
H   60.165215   24.095982   28.718279
H   50.304596   87.850006   88.022835
H   35.344929   50.607658   54.704597
H    9.104348   29.218292   71.754845
H   28.492680    3.421573   98.105095
H   87.033745   22.056765   24.958845
H   79.932266   64.768379   88.464340
H   80.892555   17.509659   22.247473
H   12.619740   68.586319   80.929489
H   53.626244    0.879363   91.654556
H   78.113289   94.272980   52.823250
H   32.410202    2.756636   42.667915
H   13.838996   44.808716   73.531685
H   78.574303   90.254829   16.985577
H   69.148407   43.122227   67.193634
H   10.377867   43.586376   40.524063
H   44.196697   11.608954   38.840378
H   15.772276   20.154190   10.622282
H   87.230492   81.504532   84.524643
H   22.847809   97.813133   31.787251
H   21.584284   77.549026   26.078251
H   37.225803   70.198143   66.918175
H   99.664001   37.674728   49.551292
H    8.182852   29.192339   46.174156
H    0.791285   24.509735   49.127937
H   67.423851   18.327255   57.426834
H   19.245228   26.669920   18.796591
H   31.304626   84.869484   50.778759
H   41.794685   49.125584   60.334766
H   26.578323   69.044624   90.657623
H   12.614391   61.911991   80.284599
H   98.544586   74.605644   54.993099
H   83.358665   35.958786   28.029181
H   15.866361   66.720169   40.261124
H   45.067963   21.770945   33.236946
H   10.075069   10.704648    2.059606
H   71.093086   73.299126   85.424141
H   41.750294   54.710140   32.211861
H   56.268093    0.912263    1.804475
H   80.726494   87.975082   23.052439
H   37.152393   38.922878   46.105728
H   43.503651   17.799707   59.078922
H   31.229345   13.909023   38.809250
H   20.018518   25.122437   71.682991
H   64.253647   98.440514   55.512592
H   98.008423    5.580695    4.962864
H   94.238144   11.967583   74.346054
H   30.295212   74.051994    7.060604
H   86.072693   26.173958   99.722610
H   32.628853   61.458206   70.258636
H   23.582527   69.064346   48.336021
H   93.574692   53.596786   72.526184
H   79.851959   22.947037   71.058670
H   10.656858   70.534111   96.717628
H   79.914619   44.715630   12.559889
H   53.637787   17.954540   45.571205
H   68.356606   15.577229   77.937492
H   44.484428   66.925842   92.988083
H   43.271599   48.249069   91.874306
H   83.666374   11.200920   26.552494
H   41.264481   75.153954    0.601534
H    4.979463   58.866680   55.706944
H   29.689249   33.703636   95.937904
H   71.978302   91.744972   47.979778
H   18.371162   15.396921   71.293098
H   88.062790   29.407785   42.106495
H   38.354191   41.989471   59.795200
H   15.710731   80.001335    0.536258
H   57.209564   15.607254   44.097286
H   87.292152   51.929539   23.676197
H   73.190018   79.708855   74.658173
H   21.390507   34.837170   12.084072
H   81.614983   47.734573   41.875481
H   51.773029   16.220495   81.046509
H   87.110382   58.113377   14.381111
H   26.182436   15.293502   95.696434
H   38.933475   28.778751   79.074104
H    3.019743   64.308647   49.149364
H   64.599808   62.300468   90.157707
H   66.827095   64.272804   23.807087
H   18.858143   87.189606   43.409542
H   45.998814    2.428769   44.802197
H   18.019518   35.893196   43.755371
H   19.738712   43.720787   60.458641
H   99.130196   45.806129   63.024410
H   47.307880    1.627604   28.425667
H   38.275604   74.525688   39.712303
H   19.977865   98.497902    6.305484
H    8.836839   20.809906   47.443687
H   83.130699   39.165089    0.070586
H   72.590988   64.911873   45.965439
