100
TIME:    9.645, STEP:  9645
H   65.069977   37.528969   90.315750
H   34.104050   27.512325   86.253227
H   45.559551   67.803871   10.122194
H   83.095490   35.277397   11.486707
H    8.771772   45.846268    4.191025
H   78.453735   90.758949   33.922264
H   47.474949   12.614039   44.704739
H   61.808319   23.017254   22.621552
H   16.535362   58.964539   92.968819
H   11.318285   54.872913   85.361488
H    3.100571   54.328537   10.692045
H   87.717979    7.144560    6.387788
H   28.720123   78.189156   66.613312
H   77.518982   75.347298   91.228386
H   97.754158    8.493874   87.072289
H   13.718159   68.141953   32.421936
H   48.513527   19.913063   51.410751
H    7.319708   25.513039   65.181229
H   95.492752   82.972977   71.498932
H   32.662395    0.991484   73.009056
H   91.928253   96.027351   95.461166
H   87.055893   56.887863   97.917465
H   56.967552   16.187483   56.395996
H   22.897953   52.210419   90.752594
H   84.624374   21.263496    7.766666
H    2.127929   41.768906   83.244682
H   30.379490   41.545940   91.336411
H   18.724840    6.635702   85.584831
H   20.892559   24.161741    1.248437
H   70.825264   52.125809   50.138191
H   95.646263   86.941559   46.297394
H   74.748550   86.030563    6.378092
H   49.738976   62.808243   66.694725
H   85.625946   89.816063   65.422874
H   40.918449   29.408119   11.861846
H   11.060888   40.871662   89.104652
H    4.880377   51.314705   68.453629
H   65.344093   82.446892    3.062967
H   37.953808   71.269066    9.640469
H   54.741627    9.249726   96.882889
H   76.084198   87.126053   69.576500
H   87.385567   79.427109   72.351555
H   94.292023   21.346878   98.141808
H   63.485813   74.540260   23.770451
H   20.019110   51.355839   81.459976
H   53.629723   46.874432   22.345224
H   17.098270   49.369099   18.053751
H   56.776302   94.710373   65.355118
H   46.961571   33.651272   59.732979
H   28.231665   77.543297    9.154034
H   44.986698   38.642860   51.803711
H   73.875946   68.755493   40.902016
H    8.929234   77.933716   42.706215
H   53.332344   49.839355   57.423225
H   72.845528    3.846025   82.372665
H    5.608595    2.388120   64.288223
H    7.703928   11.244093   73.307182
H    7.869620   66.035851   65.122093
H   50.960751   46.306862   71.039436
H   22.548733   69.135880   89.283852
H   68.118439   30.034464   62.402195
H   56.598015   38.167770   58.951332
H   28.864407   49.133408   72.087387
H    5.344300   94.303391   65.281067
H   15.148768   90.512520   93.765129
H    8.842257   62.792076   16.472528
H   13.731964   81.814056   32.723522
H   14.119790   69.145210   27.289383
H   37.607895   56.758148   55.316357
H   25.909912   33.087574   81.386734
H   15.752132   39.151592   46.458107
H   79.024406   31.349022   63.019054
H   78.120193   41.228695   14.450275
H   17.887028   38.988102   30.079905
H   27.079607   42.516994   32.591877
H   53.673798   25.726406   46.942719
H   42.754829   91.000656   61.801659
H   85.111671   20.066017   47.108131
H   24.026655   25.188313   25.295916
H   26.525261   83.610085   89.995949
H   99.632561   29.064310   56.451942
H   65.047691    7.026786   80.102684
H   27.940584   68.416786   48.484646
H   13.710118   37.503128   82.495537
H   82.700409   45.566750   12.779609
H   29.311115   63.333305   11.561376
H   11.322664    2.081800   83.453941
H   11.146240   33.274879   95.577682
H   55.846195   57.153938   49.307137
H   13.591010   12.453712   69.000046
H   18.736471   94.232666   37.146873
H   91.931229   20.875593   17.303049
H    3.716690   16.912169   64.867241
H   77.267738   98.160324   80.444786
H   89.833588   85.789192   37.716530
H   90.559021   14.861954   69.272079
H   97.027946   21.184982   82.495087
H   19.660227   63.693272   85.252098
H   49.247398   78.451637   37.167973
H   38.299164   31.129169   68.607285
