100
TIME:    8.075, STEP:  8075
H   71.242912   81.505241   91.753128
H   77.464951   42.437031   87.259903
H   18.572779   54.851593   28.551533
H   82.831970   99.959404   97.543770
H   22.840109   20.004108   46.758286
H    2.794398   92.459846   78.440773
H   29.759827    6.599544   21.928684
H   85.207214   87.192131   66.775032
H   55.128960    9.914466   91.794464
H   54.202950   32.330036   23.888836
H   49.138199   91.157898   61.923737
H   47.642204   28.448421   18.141697
H   28.833885   73.216217   22.636003
H   55.255318   80.186470   71.751930
H   78.684944   48.734024   62.572769
H   76.844742    5.459913   62.745392
H   74.763527   16.069958    8.487462
H   73.744904    1.909629   19.607079
H   71.033371   17.108585   88.784592
H   74.960342   34.332233   66.116158
H   85.094780   52.326191   38.074314
H   36.538456   54.803665   31.617416
H   77.929314   28.950201    1.314149
H   68.774826   33.428680    7.353630
H   40.775337   45.772903   96.175636
H    9.533092   88.052475   30.988659
H   65.763702    6.807842   60.191761
H   51.196129   33.353397   33.688492
H   86.753700   81.719315   75.462700
H   10.624943   90.982925   25.327652
H   33.857128   46.156265   70.510780
H   75.617760   29.408131   51.720863
H   39.149059   77.677116   25.256727
H   19.289806   33.697060   31.563501
H   79.991173   48.279198   16.340902
H   74.583740   17.897730   94.039650
H   54.295994    8.810694   44.743679
H   30.238209   11.174091   92.272179
H    4.222276    5.477720   61.784798
H    2.619079   56.229546   73.359558
H   83.382782   33.255173   32.587978
H   19.697060   73.269272   92.203667
H   80.780670   11.927359   84.739021
H   63.726559   48.181145   70.265289
H   56.208626   13.295458   47.109772
H   73.890617   16.932072   15.966860
H    4.823540   63.984138    2.976837
H   56.680477   78.539871   68.212791
H    1.073062   63.677467   22.358421
H   95.276611   53.640102   18.928082
H   42.947124   90.054070   38.549576
H   97.573090   14.438417   43.963501
H   76.370232   68.830322   33.888680
H   89.694489   75.455261   88.144363
H   97.850929   66.260239   69.029007
H    3.653162    4.039607   17.734741
H    8.172715   56.545769   23.987267
H   24.774466   14.303110    5.560807
H   27.132359   79.966225   91.568344
H   26.152367   48.460186   33.938377
H   69.077774    3.047480   84.805428
H   12.320412   52.781113   29.985783
H   22.271904   56.259674   79.743469
H   97.535149   85.750992    7.901258
H   52.834801   15.907152   47.558777
H    5.288799   40.841087   23.641376
H   39.696503   27.536636   56.923382
H   22.570442   79.354973   52.234299
H   59.360649   69.568336   53.783882
H   94.023796   54.229343   84.716660
H   65.614845   45.979240   65.287758
H    8.311194   83.477928   47.939892
H   80.485809   18.889898   54.708836
H   52.443989   38.353008   23.364233
H   51.451706   40.205212   13.553473
H   16.553514   25.104172   52.583549
H    0.164760   26.888641   33.952461
H   11.357287   22.718761   60.393200
H   48.737740   29.799900    7.773289
H    3.520200   69.135887   25.252632
H   68.896629   12.821939   62.614639
H   47.237495   96.838135   11.450016
H   28.635870   42.160679   98.964539
H    5.696939    3.154127   25.890934
H   59.144958   43.780445   64.972328
H   65.448715    5.661250    2.535606
H    6.465830   16.234200    8.590508
H   85.897240   58.905518   11.852791
H   23.264023   44.568794   62.147713
H   52.400883   77.049454   12.879475
H   54.484974    9.458802    3.991174
H   75.767128    2.796933   87.388252
H    3.076656   69.809837   43.456726
H   27.683683    3.073790   71.283638
H   16.979404   26.420212    1.642194
H   60.883484   76.859253   50.364738
H   21.646791   31.086281   72.787971
H   22.690699   86.010475   16.775396
H   24.038475   71.672005   68.672356
H   40.780132   71.414017   19.849453
