100
TIME:    0.018, STEP:    18
H   16.105307   20.370514   99.129532
H    0.769511    5.720655   79.135956
H   80.073700   75.198845   23.128517
H   81.479630   31.909407   39.176765
H   95.009827   74.200302   65.217278
H   27.737213    1.194061   80.528343
H   52.026150   62.554455   91.860107
H   18.471533   90.159454    6.540735
H   53.185524   84.562698   98.953346
H   74.348701   16.645889    8.393366
H   98.580719   66.966782   38.015694
H   55.155087   24.592720   91.648186
H   42.117165   60.618362   23.340096
H   54.190845    5.021769   58.610947
H   80.722054   68.413254   49.908077
H    0.797577   10.164528   31.546352
H   22.618639   83.187477   74.993553
H    1.529501   93.825165   98.922165
H   45.544586   79.109039   64.309174
H   92.162148    5.155054   17.416010
H   63.208405   54.426140   56.752411
H   64.073769   44.123695   17.722765
H   85.503700   94.475822   31.836266
H   17.369175   36.897648    5.737415
H   28.938753   84.745003   36.691116
H   46.570271   27.079285   87.482719
H   60.527546   41.729267    0.323586
H   31.021568   57.279354   67.371414
H   11.562400   50.724911   56.321259
H    1.684322   90.394150   84.819817
H   16.809816   23.656351    7.987631
H   66.893890   52.012642   97.597755
H   71.626648   67.165291   99.418533
H   78.862679   72.073120   70.993156
H   80.324409   57.559525   25.824821
H   74.120171   85.900017   20.582396
H   81.527229    3.874060    9.882229
H   63.244141   58.624798   23.711908
H   49.912113   80.123741   40.401779
H   61.497128   10.497778   39.450249
H   34.011387   56.796711   42.761723
H   30.003433   12.664274    3.646121
H   11.396899   63.607876    2.773798
H   78.210281   13.073560   82.491226
H   55.093361   31.181751   57.647446
H   77.721550   63.542347   83.388878
H   36.270130   26.711414   27.777044
H   56.240376   95.567032   69.691681
H   65.553093   30.958324   43.756622
H   26.267302   31.023365   82.405899
H   43.536388   67.907219   53.618587
H    6.008317   62.069572   72.881058
H    9.252834   22.113098    1.824020
H   76.267242    6.908686   32.609943
H   39.326881   60.083614    0.558930
H   93.588760   12.513569   92.014038
H   97.393639   89.027412   57.699409
H   24.719889   75.186577   13.091387
H   91.697060   39.529633   10.101199
H   57.836426   29.171270   63.085716
H   60.836258   77.733139   12.992904
H   98.272278   27.777817   94.539429
H   75.454628    5.925777   32.323212
H   44.275528   41.892395   26.652304
H   33.035698   59.407505   97.237221
H    0.239745   41.378345   47.250164
H   86.124168   48.983997   67.931381
H   79.122322   18.566593   67.063103
H   57.800957   48.492958   59.104824
H   30.751358   49.049637    1.692914
H   21.461439   94.179466   61.931522
H   72.482140   50.928139   57.940418
H    5.817780   17.416691   61.288181
H   29.794769   48.241283    2.138834
H   63.037914   28.669310    2.762149
H   26.083220    8.725790   94.718887
H   68.590088   24.984062   91.350037
H   32.826004   49.542957   15.434067
H   62.417343   53.446743   17.889160
H   98.642685    7.973468   19.370325
H   11.234455   29.466944   81.064545
H   42.674931   44.345108   85.275330
H   18.934818    7.557784   31.614168
H   51.408730   13.701878   61.786110
H   51.454941   47.760178   46.007317
H   50.885960    9.708781   43.035366
H   68.356895    2.044179   24.401516
H   56.244934    3.852993   95.550758
H   56.056831   93.170372   28.053818
H   64.743202    8.546539   24.855356
H   24.759218   74.402527   33.841869
H   79.618446   96.860527   33.868111
H   86.439156   28.170732   20.307154
H   48.968086   14.324018   28.032707
H   56.280460   48.117855   16.501163
H   95.408279   95.020866   66.519173
H   61.173546   68.713371   36.153664
H    6.931532   16.390930   55.747086
H    7.854473   36.927883   43.543736
H   40.359386   78.240074   95.952133
