100
TIME:    6.636, STEP:  6636
H   68.556717   13.467752   93.070572
H   17.205666   64.460762   96.526039
H   93.834595   51.324135   45.446629
H   82.590439   59.247345   76.421875
H   35.733002    4.662040   85.776581
H   25.112469   94.018822   35.931385
H    5.178195    9.431364    9.396997
H   98.309776   62.699154   98.897682
H   90.502327   48.269089   82.374641
H   93.506691   11.667547   67.543983
H   82.990479   33.256245    0.536776
H    2.561427   56.318974   20.571194
H   20.609848   60.298168   65.635185
H   26.505619   84.621864   62.243816
H   61.206856   77.272606   31.777370
H   34.705383   31.320290   82.194824
H   90.479378   20.891109   77.489601
H   42.975086   71.931335   69.485878
H   48.622402   56.743446   12.973086
H   13.733223   64.886269   68.142357
H   70.487076   95.582001   77.129234
H   98.580124   52.893372   54.161575
H   97.142036   40.652061   42.487381
H    2.477497   16.214083   14.226053
H   92.243477   59.893021   85.548256
H   16.295691   30.482620   66.396553
H   89.849220   66.628372   31.636168
H   72.614670   66.185753   86.123764
H   55.464409   51.161663   43.484283
H   55.446583   26.599052   10.931759
H   77.224800   17.118835   84.359810
H   84.758423   69.163422   84.936317
H   37.787937   82.961266   95.620239
H   58.488747   65.572922   92.187836
H   15.804611   57.231728   28.790705
H   49.493587    5.188440   98.562874
H   16.278091   61.510864   31.356054
H   89.714729   37.511486   90.726021
H   64.966797   36.828239    1.234990
H   38.156483   90.943054   60.142185
H   81.728287   83.880196   98.686989
H   40.968109   67.626221   18.739986
H   68.396698    3.295301   80.799034
H   55.611492   24.027731   29.568869
H   81.031517   70.067612   23.970900
H   92.466576   89.488388   10.120703
H   93.578415   85.725845   89.163719
H   56.593815   63.718628   79.176010
H   59.004242   82.856361   79.762100
H   65.063232   31.737532   19.542482
H   43.045933   28.980867   23.380135
H   27.634678   47.968513   38.424232
H   46.523701   60.486511   17.459707
H   23.018227   98.927719   24.644207
H   12.426575   40.152306   56.792271
H    1.860889    5.553295   66.721695
H   16.946154   98.067207   87.126198
H   31.924963   50.199379   42.628036
H   13.644788   19.158092    2.037641
H   21.111755   37.853451   74.866966
H   78.304436   69.965469   97.001846
H   63.393318   66.175125   95.095032
H   24.578089   54.454506   78.420013
H   98.721420   77.912201   46.973881
H   95.716339   30.837570   13.550715
H   93.687622   12.377817   38.555954
H   55.149948   77.784882   87.447769
H   21.972023   97.056618   83.441772
H   87.639198   72.965698   44.034924
H   64.825890   81.913994   87.759613
H   11.309067   43.888016   82.546272
H   26.798872   31.289215   42.478874
H   74.311447   90.063202   91.600159
H   84.124504   29.427315    8.865339
H   82.118767   38.102261    4.451480
H   82.537209   32.877789   49.410225
H   69.473236   51.438732    8.432055
H   43.751675   16.808084   80.921486
H   79.732872   34.026699   91.718407
H   74.089462   47.525612   49.223808
H   40.729027   97.934128   76.607391
H   39.257011   87.506241   31.837040
H   37.617264   18.095373   61.923431
H    6.696301   80.015892   57.320194
H   29.211504   33.799637    4.466658
H   98.560471   52.806877    2.607080
H   10.358232   20.861534   39.973518
H   62.754143   74.055176   26.772842
H   93.398056   24.690161   73.916878
H   79.627518   36.253323   61.435699
H   95.595085   31.757141   73.601974
H   69.295700   94.570328   59.965080
H   10.833837   26.632092   32.176643
H   88.610725   15.771211   74.254303
H   41.860451   55.317970   68.574493
H   42.028000   33.682526   24.691116
H   35.867516   48.506042   55.546997
H   25.468309   14.808900   45.663246
H   92.589470   65.458061   89.202324
H   51.397655    8.344830   58.474377
