100
TIME:    6.457, STEP:  6457
H   80.661942   29.882376   93.234451
H   22.148678   54.760532   85.240211
H   90.756393   38.445946   47.548382
H   82.560394   66.621918   86.232788
H   37.336288   90.314453   90.630142
H   27.888859   94.212746   18.204262
H   14.559318   97.344353   95.398888
H   12.378830   47.213917   15.333011
H   94.902489   65.479156   93.641350
H   98.395760    9.097031   60.535404
H   99.640625   26.053747   17.778923
H    9.393814   47.346577   33.312202
H   32.032242   71.122871   83.421562
H   35.368340   85.173592   48.621342
H   59.032722   93.261772   40.385136
H   41.902420   46.976234   97.053223
H    4.873529    9.051988   61.194527
H   39.147137   80.641525   75.691444
H   45.835087   49.233673    3.543116
H   18.555374   68.688271   55.955193
H   81.109192   13.402126   81.988258
H   81.419220   52.655746   69.405090
H   99.531944   42.107857   47.608612
H   19.109215   14.072725   27.520132
H   98.645699   74.088104   84.226295
H   17.111673   35.774559   83.229698
H    5.284180   74.068497   28.084082
H   87.718887   57.830635   80.207718
H   51.572273   34.921215   51.945923
H   48.582767   31.029259   96.702011
H   70.180717    1.067791   98.521721
H   73.456207   74.109848    1.507245
H   25.179153   96.057961   79.494507
H   50.925713   81.977249   99.729019
H   20.259415   70.784554   17.899553
H   33.933239   91.168388   99.125526
H   99.109718   68.066040   17.251501
H   97.113884   40.787708   78.093651
H   72.521637   40.728569   18.580996
H   55.015575    7.700190   46.058117
H   93.961884   77.737450   94.469826
H   56.053207   66.924271    9.601663
H   66.856232    2.221464   67.868950
H   67.041077   21.023275   12.067309
H   96.559090   77.130814    8.652957
H   94.777275   86.074234    9.393488
H   92.179977   75.991409   87.445717
H   56.584255   61.874985   68.100494
H   53.772392   97.681984   86.901779
H   61.305912   29.012354   32.058090
H   43.058224   46.262070   21.493473
H   18.933365   64.579010   50.174385
H   42.810467   59.448608   27.855806
H   27.163010    1.848166   16.745903
H   26.679302   24.465279   55.269558
H    1.637945    5.741586   72.815277
H    5.598558    3.232300   70.101860
H   45.253815   67.103539   47.238510
H   99.527573   11.593892   15.779207
H   32.923363   24.094410   79.958153
H   67.013145   78.290543   10.958094
H   69.746376   67.841232    3.193853
H   12.425749   66.668983   90.694580
H   86.430466   76.937119   51.834270
H   88.612167   45.134624   96.880898
H    4.683666   21.276329   27.972075
H   69.511246   71.595703   78.805862
H   34.336723   86.819618   74.884537
H   78.718697   85.827499   55.262028
H   61.199745   72.911552   88.136536
H   16.993351   56.066986   84.693092
H   41.557819   37.229843   29.372757
H   85.982391   98.918152   96.188782
H   88.065804   40.755634   19.500429
H   73.487785   37.846882   90.882095
H   78.306389   21.405495   61.453995
H   53.216396   66.931908    5.257427
H   35.341930   28.512487   71.036827
H   71.148323   34.552479   89.721809
H   82.867935   57.276436   64.644859
H   37.226105   96.082291   65.908798
H   25.825415   86.345428   46.811527
H   26.294563   15.101945   44.875877
H   94.381142   64.698631   73.669334
H   37.927376   44.996696   21.818527
H    2.680088   46.231216   90.176773
H   98.403145   33.876289   31.438131
H   59.875328   88.378235   28.628777
H   89.683456   34.656258   75.380867
H   95.452805   43.618336   55.037575
H   88.269676   22.091671   69.821823
H   56.051510   81.107635   56.555023
H   99.359756   21.260944   18.334299
H   71.310524    4.911810   62.184586
H   44.955040   71.351578   64.461121
H   27.243347   40.751190   33.936646
H   50.075859   38.233536   65.841354
H   25.813822    5.951941   49.256302
H    1.116639   64.685097    4.194923
H   40.279804   12.938232   75.717659
