100
TIME:    7.389, STEP:  7389
H   17.634432   44.414009   92.381180
H   96.411179    5.261930   44.005650
H    6.781039    5.498595   36.605175
H   82.716827   28.224350   35.146252
H   28.987165   65.018272   65.359085
H   13.433333   93.203041   10.503216
H   65.710968   60.279591   68.282578
H   39.125465   27.844425   29.760300
H   71.992149   75.871124   34.975414
H   72.939827   22.480089   97.026985
H   12.948242   63.555027   28.003954
H   73.824768   94.063187   66.971977
H   72.577690   14.739504   90.808205
H   89.222450   82.300911   19.545902
H   70.352791   10.010918   95.566193
H    4.427049   65.460022   19.689375
H   29.927773   70.694717   46.038174
H   59.078136   35.290146   43.385437
H   60.347813   88.330414   52.641857
H   93.445999   48.897800   19.410044
H   25.802979   20.618774   56.690815
H   70.770966   53.892990   90.036697
H   87.088402   34.527962   20.942404
H   32.512985   25.222139   58.303276
H   65.311226    0.174431   91.109352
H   12.767559    8.274654   95.544548
H   24.916830   35.324707   46.578739
H    9.079785    1.333252   11.012723
H   71.837471   19.479918    7.890617
H   84.320618    7.961866   70.792961
H    6.858129   84.641434   24.784843
H   32.303127   48.359592   15.227287
H   90.828011   27.867563   63.456429
H   90.304192   96.565041   60.464310
H   97.063713    0.219077   74.605225
H   14.950954   64.167007   96.195961
H   88.500229   33.935181   90.689728
H   58.589676   23.729389   43.862030
H   33.180248   20.422735   28.263027
H   67.231346   20.449633   19.385263
H   30.265265    9.718930   16.426115
H   77.509224   70.579117   57.180332
H   74.876984    7.812311   35.188778
H    7.531892   36.666588    3.193184
H   15.715149   40.359386   88.406441
H   82.746147    3.850072   13.179880
H   99.461227   26.677490   96.390846
H   56.638607   71.474289   25.766964
H   81.017525   20.493366   49.724854
H   80.873291   43.198742   66.894508
H   42.994228   56.283386   31.316761
H   64.234009   78.094818   88.994812
H   62.144176   64.852661   73.728096
H    5.582352   86.645050   57.872269
H   52.471939    6.141094   63.197872
H    2.798750    4.761212   41.087799
H   64.680893   76.339867   58.742851
H   75.855637   79.087364   23.231840
H   73.029350   50.979282   44.232079
H   71.420052   95.730515   53.449852
H   25.804628   34.949120   38.291138
H   36.667885   59.166306   61.027069
H   75.700523    3.070560   26.784546
H   50.429760   82.014084   26.527660
H   25.604137   70.698029   83.674141
H   47.429413   74.944298   83.079193
H   94.734772    3.820388   23.803473
H   69.956947   40.122673   19.439529
H   25.168465   18.859909   96.806671
H   80.091515   19.775469   86.171646
H   87.397774   92.654251   73.515236
H   64.800209    6.255618   97.657539
H   25.214842   52.821407   72.297180
H   67.544624   81.769226   64.124237
H   18.406794   39.195095   61.540638
H    0.335103   81.138939   98.744057
H   37.862019   86.263741   21.786154
H   79.128983   67.572929   22.505976
H   15.843520   31.814899    0.117560
H   37.161026    6.505304   84.352303
H   55.466789    5.724954   21.613327
H   95.761665   92.389435   68.839622
H   85.245949   30.688269   33.634254
H   58.499775   44.452145   88.546379
H   92.546844   86.694847   31.471617
H   81.233749   80.465317   54.897827
H   60.649387   66.111977   75.879356
H   74.864464   13.798388   18.965477
H    9.025567   82.764809   67.758308
H   13.051578    5.270893   88.355911
H   26.411060   72.415245   89.503952
H   25.010073   51.202576   74.314308
H   59.102619   49.226917   90.407295
H   61.383728   61.454918   25.027689
H   28.841732   87.867813   85.878235
H    4.222703    3.948972   85.797325
H   76.098381   91.719437   12.240497
H   24.014841   52.066120   30.548048
H   56.718102   68.709694   26.130985
H   98.171364   89.020401   85.934464
