100
TIME:    9.648, STEP:  9648
H   64.867096   37.253853   90.313004
H   34.021194   27.674900   86.442375
H   45.611118   68.019707   10.086975
H   83.095993   35.153801   11.322261
H    8.744890   46.086731    4.109686
H   78.407227   90.755699   34.219376
H   47.317730   12.816623   44.939342
H   61.572525   23.276783   22.346092
H   16.461617   58.676102   92.779991
H   11.236334   54.915989   85.478951
H    2.821517   54.449249   10.403070
H   87.603493    7.294930    6.174250
H   28.528824   78.007561   66.315170
H   77.370438   75.338051   91.456673
H   97.790596    8.225899   86.928001
H   13.597527   67.879562   32.172913
H   48.272285   20.111481   51.683853
H    7.383864   25.367058   65.077225
H   95.539490   83.098816   71.657089
H   32.581577    0.927775   73.213310
H   91.750229   95.728706   95.379730
H   87.343506   56.891846   97.661987
H   56.927498   16.163095   56.310165
H   22.619209   52.246307   90.529800
H   84.517075   21.025574    7.788810
H    2.113777   41.680466   82.962379
H   30.120796   41.421223   91.395920
H   18.471708    6.775732   85.683983
H   20.957790   24.433916    1.106631
H   70.940300   52.051559   50.376686
H   95.764320   87.210587   46.060043
H   74.937973   85.947662    6.100369
H   49.950302   62.588745   66.964989
H   85.752701   89.541130   65.296486
H   40.843788   29.180977   12.044374
H   11.321665   41.106655   89.095222
H    5.168113   51.204842   68.690018
H   65.220085   82.392006    3.274662
H   37.827168   71.203697    9.349754
H   54.459072    8.968871   97.118912
H   75.879166   87.229004   69.647179
H   87.132744   79.438919   72.504631
H   94.317841   21.364880   98.358513
H   63.294262   74.590614   24.063763
H   19.758642   51.237095   81.716553
H   53.591019   46.931652   22.357412
H   17.121731   49.532269   18.082556
H   56.776485   94.741272   65.540741
H   47.049255   33.402821   59.613297
H   28.294630   77.588982    8.944269
H   45.003407   38.354492   51.809341
H   74.021744   68.477127   40.705086
H    8.991461   77.951111   42.531967
H   53.262878   49.790398   57.555611
H   72.606667    4.108936   82.398163
H    5.612331    2.384964   64.186096
H    7.894112   11.157524   73.592506
H    7.646237   65.752541   65.044823
H   51.197369   46.433640   70.809135
H   22.350773   69.366455   89.198524
H   68.307678   29.894949   62.168301
H   56.491539   38.139847   58.815582
H   29.068329   48.929085   71.881851
H    5.550308   94.319733   65.199631
H   15.267844   90.272926   94.044502
H    8.657967   62.642937   16.649912
H   13.491261   81.917786   32.868359
H   13.912555   69.316780   27.432800
H   37.757423   56.542587   55.128193
H   25.970840   33.238247   81.380371
H   15.656855   38.947453   46.422127
H   78.777351   31.249413   63.238941
H   77.924591   41.080311   14.373348
H   17.820995   38.798244   29.901663
H   27.224112   42.521412   32.819340
H   53.744728   25.918678   46.740868
H   43.027290   90.741013   61.854874
H   85.252617   19.869865   47.273819
H   24.170507   25.179501   25.329401
H   26.378147   83.446663   89.737495
H   99.691292   29.095346   56.631248
H   65.272820    7.046261   79.851692
H   28.130339   68.466957   48.770359
H   13.916512   37.759842   82.221519
H   82.554337   45.379089   12.488797
H   29.242062   63.443512   11.769710
H   11.523027    1.863672   83.596992
H   11.194483   33.034828   95.546600
H   55.908451   56.986900   49.282600
H   13.325765   12.330276   69.107300
H   18.859243   94.394669   37.210228
H   92.153198   21.101213   17.360201
H    3.908994   17.002188   65.099236
H   77.540749   98.341049   80.673073
H   89.781723   85.520485   37.785469
H   90.806808   14.743490   69.117126
H   96.789818   21.357136   82.322556
H   19.654436   63.841702   85.191856
H   49.104485   78.464592   36.916683
H   38.485497   31.052185   68.318298
