100
TIME:    4.468, STEP:  4468
H   15.169804   12.282915   95.055435
H   77.080330   46.978958   59.828720
H   56.555550   95.350304   70.898018
H   82.226547   48.569145   95.256233
H   55.151581   30.887407   44.558182
H   58.739361   96.367577   21.226912
H   18.802853   63.039791   39.856426
H   68.710304   75.140167   97.956367
H   43.795967   56.713425   18.841921
H   52.741386   80.537224   82.652039
H   84.652557   46.022114    9.369469
H   85.309410   47.648308   74.892067
H   58.954788   91.400887   81.059082
H   33.851341   91.304237   97.255997
H   34.849190   70.927673   35.999439
H   21.875900   20.941582   62.158142
H   64.817146   77.493637   80.128014
H   96.614357   77.419273   44.642529
H   14.858986   65.793488   98.755127
H   72.140129   10.933115   20.534800
H   99.139275   11.413326   35.974800
H   90.731857   50.015320   38.786789
H   26.089790   58.284264    4.514663
H    3.915890   90.268311   75.241043
H   69.782867   31.824890   69.537025
H   26.178656   94.569275   70.267159
H   76.798790   56.749233   88.619789
H   55.544254   64.990845   14.458854
H    8.323232   54.463772   45.966957
H   72.316330   80.256523   38.581367
H   91.898720   22.710011   55.885002
H   47.869396   29.066010   85.638924
H   85.077370   41.581779    0.309678
H   66.885132   64.257202   83.521873
H   69.708755   21.173729   96.799362
H   61.033192   35.381947    5.381007
H    8.338690   40.908676   60.526234
H   79.320717   77.186714   37.735577
H   56.478619   84.067986   11.330030
H   42.357674   93.903801   89.567322
H   29.895092    9.493024   47.609844
H   30.062759   12.383609   12.711962
H   49.726337   90.293213   24.202501
H   94.047440   87.648407   17.592459
H   69.088860   55.605202   38.449848
H   20.444363   48.137074    1.310737
H   76.640915   67.822838   68.355736
H   56.478031   41.388916   45.032433
H   95.636093   62.408810   66.245880
H   19.584957   98.737801   71.165627
H   43.203739   38.287270    0.526596
H   22.268656   49.142696   80.746277
H    1.551095   47.915710   43.374981
H   73.221764   34.305550   28.976177
H   85.045898   50.153309   38.349583
H   99.156693    7.833820   40.525543
H   79.503159   60.624474   80.931374
H   93.359268   54.940300   98.468857
H   42.657883   27.553341   68.473366
H   64.175415   71.214233   36.530037
H   41.545898   70.787987   66.034279
H   40.336571   86.354568   93.190613
H   77.393593    2.394408   27.086296
H   49.849663   66.102264    5.831501
H    9.664216    3.991842   11.654338
H   26.868660   20.155159   10.366502
H   29.092894    2.834076   82.776901
H   71.730400   73.066788   79.798836
H   79.587173   28.744339   80.007812
H   20.908388   72.871094   92.324799
H   80.152946   91.396881    8.550179
H    5.560596    3.240614   83.748161
H   15.669409   97.302101   47.190300
H   31.851406   66.636986   37.680138
H   77.590706   35.009182   40.103115
H   31.284098   93.929405   95.290207
H   72.621078   39.289860   70.067665
H   41.895092   58.570080   61.192368
H   75.768776   40.394802   67.536156
H   80.405975   65.618523   35.998955
H   98.304428   75.505173   47.030468
H   76.565071   73.406998   13.166010
H    0.484324   81.840027   55.454426
H   57.540237   94.495186   55.333382
H   34.775375   69.409920   14.629804
H   48.462437   73.173134   52.054733
H   65.562340   78.492920   36.595093
H   27.874529   47.575264   49.277779
H   48.407822   45.400749   91.648323
H   71.308090   25.449715   83.937134
H    6.871669   14.691383   27.817789
H    8.883948   31.517029   18.662432
H   71.861000   61.580704   64.521835
H   79.077255   84.250320   28.073305
H   79.341286   49.514015   18.756626
H   62.960068   19.295059   36.671074
H    7.953813   24.089794   80.230026
H   23.266302   54.280029   84.539131
H   95.868042   56.110088   70.795860
H   16.736330   63.974140   67.324448
