100
TIME:    1.711, STEP:  1711
H    1.614839   65.113907   97.579544
H   53.675682   97.512154   85.929649
H    9.165403   97.000755    3.250230
H   81.763794   62.157005   46.378033
H   79.845779    9.901708   19.312279
H    1.483963   99.354439   48.192135
H   63.295139   76.873100   24.255287
H   85.405067   36.625004   51.096313
H   11.568352   21.787842   92.385384
H   28.082113   40.950783   74.692009
H   41.101974   35.088139   74.936722
H   90.535446    9.454201   71.138268
H   34.425896   58.189522   55.068855
H   70.362953   99.802071   87.447701
H    1.311404   17.193859   68.527725
H   32.729355   62.080635   91.013443
H   86.505630   95.148148   29.137552
H   37.707741   11.494802   40.229294
H   71.911171   50.133247   53.503338
H   46.419914   69.477158   32.825447
H   62.743469   85.881836   10.805210
H   26.409794   46.358261   73.567116
H   62.899712   80.706764   83.395966
H   60.071083   57.202488   80.000839
H   68.388786   50.475830   49.186211
H   38.813595   76.625305   28.800650
H   14.536968   71.354507   33.919201
H   88.172775   36.303402   23.328485
H   48.375000    4.327558   76.292656
H   66.600670   48.492813   19.408100
H   83.407631   75.478928   74.018585
H   73.790802    5.241113   40.868217
H   90.878006   43.297005   51.937347
H   50.395332   16.919655   99.670197
H   38.242241   29.581795   28.916451
H   21.319641   18.891508   14.757756
H   43.906021   41.876320   43.285343
H   93.273140   27.637959   43.181446
H   73.801407   43.983192   78.136093
H    2.036736   52.005665   72.652908
H   18.313698   14.891955   82.654953
H   77.846252   88.648094   83.185822
H   25.978682   73.760300   25.060989
H   70.100426   41.446945   48.026196
H    8.239342   64.381027    2.524606
H   56.013264   95.551491   90.118477
H   54.146656   18.038927   42.243599
H   56.330791   12.999731   74.444923
H   15.045659   90.744713   76.222794
H   61.774937   56.791912   63.993740
H   43.414082    4.457201   71.457367
H   88.284798    4.970666   61.739315
H   44.372353   31.929688    3.496917
H   37.069508   79.290642    7.318754
H    4.546608    8.499990   14.925186
H   95.707077   10.733768   34.380325
H    4.722639   40.176964   18.717916
H   98.652679   15.304622   69.484085
H   25.219933   11.062110   80.129440
H   46.109692   59.302128   14.944736
H   67.631882   99.003609   80.992455
H   38.184418   12.018791   17.936432
H   90.288727   90.475578   16.177101
H   60.531837   51.101906   80.687675
H    0.233641   24.189037   54.903934
H   96.235970   57.214149   47.353024
H   50.292068    7.517509   49.669811
H   62.175301   15.390985   47.998295
H   42.178871   26.844772   52.922577
H   65.045471   34.201118   98.130249
H   67.700340   78.984154   41.626682
H   32.887600   94.740158   81.893486
H   95.430771   33.673054   17.875607
H   92.534386   41.104279    1.518756
H   44.665436   31.078249   31.103817
H   66.110970   17.231264   80.800591
H   22.302324   78.249496   21.307985
H   12.366221   38.842606    8.931170
H   43.566231   48.490086   36.768349
H   15.614990   15.768816   73.517036
H   44.364979   46.982738   82.251350
H   69.702118   55.401688   43.705032
H   26.057667   35.814606   92.864258
H   67.872627   58.574078    7.148994
H   69.017899   41.860626   81.890244
H   11.910480   71.904289   60.600304
H   81.428535   78.949280    5.130190
H   83.498886   68.307816   77.957680
H   91.189888   98.906960   14.201221
H   15.062769   38.880699   85.381615
H   94.043678   65.819061   69.594925
H    4.883713   24.189188   66.121620
H   95.065590   78.898361   51.282883
H   12.601915   17.017015   42.182396
H   27.010422   96.467987   55.403282
H   35.243195   28.165098   79.073471
H   26.791008   65.871269   38.788162
H   13.147351   30.805817   28.660252
H   27.204144   44.225742    1.729333
H   45.500259   34.754230   32.892403
