100
TIME:    2.246, STEP:  2246
H   65.434479   16.051559   97.089737
H   38.793709   26.518904   19.676901
H   18.361532   35.489761   96.970985
H   81.853592   40.115685   17.051872
H   75.053833   52.784321    4.807077
H   93.189461   98.774834    1.174217
H   35.257763   12.997581   66.092979
H   43.355125   82.909363    1.973032
H   98.416969   70.349625   58.710499
H   13.463411   48.632591   95.639427
H   91.337585   56.615162   23.403723
H   70.118652   36.270889   33.055763
H    0.395009   25.821434    1.895276
H   43.872551   98.153053   28.161640
H    7.819312   69.405487   42.809486
H   11.217525   15.285880   46.604263
H   43.492401   30.528572   77.846069
H   49.140656   85.477547   21.680794
H   80.246056   72.577103   81.690216
H   32.007339   58.115749   69.250771
H   30.995804   32.621067   96.283966
H   77.706558   47.065582   28.010605
H   55.756691   76.355644   68.089493
H   10.363823   63.618961   40.266876
H   49.253654    8.046288   53.133240
H   36.360477   60.682934   78.653999
H   68.404640   49.114529   44.535770
H   43.030785   61.275402   41.012753
H   60.007919   52.866524   51.002281
H   87.115425   35.251694   61.939083
H    4.453540   23.456511   31.686024
H    7.571025   90.458366   91.340614
H   28.562477    4.154655    0.134369
H   72.999931   67.890274   77.130905
H   24.942894   89.139648   61.492706
H   67.835464   60.920406   12.918939
H   95.219879   22.283022   85.441406
H   71.158348   17.845898   80.935158
H   50.269791   32.478760   26.657873
H   51.644840    1.919744   14.744387
H   81.751640   33.249378   95.259323
H   29.763519   12.658589    8.320629
H   30.586950   76.968536   63.703056
H   35.936378   50.414497    0.336338
H   61.830692   43.274349   48.307594
H   49.111065    5.755787   92.289955
H   59.276936   46.983185   47.015984
H   56.359364   18.508020    7.547637
H   30.682753   46.435116   54.881783
H   72.992332   64.934486   26.576557
H   43.373264   52.806877   77.098312
H   14.284277   55.327747   26.616062
H   55.470566   35.031799   72.426567
H   24.681469   70.563911   30.925417
H   61.957321   55.402081   19.464308
H   96.376480   10.171511   16.167664
H   38.638042   24.739876   69.600716
H   58.815033   64.780624   55.704178
H   67.413063   33.668377   39.056633
H   10.806692    0.421943   99.729012
H    1.379638   74.121407   39.279636
H   19.197605    7.038065   93.729279
H   26.577190   53.993111   79.473801
H   97.267761   54.012177   66.164894
H   21.468964   81.460083    4.726418
H   63.369911   30.617622   78.986397
H    7.367464   26.013395   75.498978
H   25.219353   45.988708   73.574387
H   68.844048   88.403099   19.366707
H   75.886536   61.111938   97.003693
H   50.712196   42.582130   35.209026
H   88.774231   76.984650   21.062902
H   60.548340    7.211224    4.156925
H   80.762688    7.247602   69.722099
H   70.458885   31.839491   71.659897
H   78.756157   51.520966   44.801945
H   70.877960   31.878263   30.771467
H   37.501492    3.859714   38.478542
H   69.214935   46.921520   42.737045
H   89.377205   86.632324   27.426186
H   54.834606   52.517559   14.227108
H    9.842564   58.895645   98.967873
H   59.907421   44.745422   43.820225
H    4.673916    4.354708   58.282562
H   42.968323    8.394787   30.027832
H   99.596375   91.553719   97.752174
H   17.159994   40.050430   30.641356
H   92.111328   25.474182   72.390205
H    2.292502   69.118523    9.824591
H   67.762772   16.867950    4.507932
H   15.938232   94.709518   80.893143
H   44.470325   64.424126   76.317772
H   29.391182   94.931381   92.671585
H   64.313210   49.469875   78.254219
H   17.759190   48.547203   67.697441
H   79.431961    7.039692   51.440186
H   84.325638   96.574013    8.019846
H   15.111682   35.361023   20.098831
H    1.719315   46.531918   56.912773
H   78.725510   21.012691   81.363678
