100
TIME:    7.161, STEP:  7161
H   33.052567   65.322823   92.589920
H    2.707843   92.907341   29.628811
H    2.861724   89.095360   39.282269
H   82.678558   37.618011   47.644573
H   31.030210   46.743069   71.541275
H   16.969425   93.450050   87.924057
H   77.661346   44.883259   50.452679
H   57.045815    8.120038   50.695206
H   77.596825   97.792328   49.328045
H   79.167244   19.206347   88.099861
H   34.156250   54.380894   49.965324
H   82.525757   82.634659   83.201530
H   87.116447   28.539013   13.466377
H    0.511797   83.003670    2.194382
H   67.583504   30.377007    6.531102
H   13.595009   85.401672   38.615723
H   48.262123   55.614201   25.282434
H   54.202312   46.384689   51.287994
H   56.797489   78.766632   40.630596
H   99.589920   53.738834    3.886785
H   39.332825   43.317535   62.878223
H   48.912384   53.590317    9.452942
H   90.132530   36.382271   27.466406
H   53.698380   22.494600   75.236176
H   73.466011   18.256554   89.425514
H   13.842571   14.995220   17.000563
H   44.578106   44.803253   42.054295
H   28.317650   90.690987    3.475897
H   66.879890   98.794258   18.667704
H   75.577881   13.605246   52.667351
H   97.884819   64.195328   42.823479
H   17.907009   54.658329   36.334404
H   74.768929   44.549171   42.916389
H   80.670830   17.459671   70.069839
H    2.738092   17.481819   60.734024
H   95.131477   46.309280   96.912636
H   66.631210   42.284790   72.724152
H   68.013298   27.902454   27.773376
H   42.804913   25.389883   50.358032
H   88.707237   41.794590    1.446648
H   45.847626    1.896249   11.054934
H   96.723763   69.685013   45.541325
H   72.914825    6.444628   18.720913
H   22.090031   32.839684   80.899895
H   35.492264   49.354351   68.896187
H   85.689384   99.501968   12.253595
H   97.679977   14.277452   94.202553
H   56.624691   69.125961   11.659737
H   74.351753   39.375660   58.820709
H   76.086182   39.728436   82.835304
H   43.009884   78.295044   28.913639
H   53.153378   99.250641    3.961641
H   57.414471   63.530640   86.969185
H   10.861740   90.364105   47.810989
H   70.625381   86.160774   61.258327
H    2.514776    5.001046   48.849457
H   50.227291   82.918663   37.058220
H   92.833176    0.618944   29.105268
H   55.048996   41.344181   61.734947
H   86.466743   78.206772   59.934715
H   11.421696   45.551384   56.067108
H   44.760048   61.288498   71.342819
H   60.222012   18.629173   42.419189
H   34.772503   80.772079   32.718548
H   16.554379   88.907135   62.441776
H   61.435883   86.278893   69.598053
H   13.027922   95.937500   12.795035
H   85.706398   27.083040    8.539809
H   13.804382   35.242538   11.106416
H   75.464317    8.318603   86.654114
H   94.637581    8.167352   76.249733
H   83.571953   13.831800   80.945518
H   40.081024   64.098587   78.141907
H   72.564827   96.200134   77.671478
H    7.424447   38.859371   44.253468
H   94.946037   66.527122   14.085357
H   17.154366    5.997127   17.742682
H   68.417130   82.480461    9.913932
H    4.910377   32.484608   97.574348
H   48.342545   18.925911    3.994691
H   51.003227    3.366189    7.985813
H   78.651924   90.910858   87.915001
H   70.825478   26.875280   11.920134
H   42.814686   24.941578    9.371027
H    3.648344    0.958663   53.573708
H   86.480087   72.091354   39.064880
H   45.421787   82.689430   65.007469
H   71.197594   32.043156   21.329460
H    4.293422   95.459694   69.623055
H   33.209911   14.652027   80.204605
H   17.080372   60.103600   84.689011
H    8.140383   34.054565   69.969032
H   44.487324   42.385456   72.775703
H   39.349457   47.622398    9.654151
H   32.784142    8.290192   80.638855
H   85.390808   12.952102   97.573753
H   94.196159   78.634903   25.353607
H   24.454935   40.785450   35.124954
H   67.579552   67.725136   45.228977
H   84.008339   94.872086    7.897945
