100
TIME:    8.217, STEP:  8217
H   61.639885   68.483086   91.623123
H   73.543137   50.132236   96.212906
H   21.013620   65.067810   26.884762
H   82.855804   94.109184   89.760811
H   21.567686   31.386036   42.907974
H    0.592151   92.306007   92.502968
H   22.317589   16.188486   33.033268
H   74.046295   99.477592   53.736855
H   51.638329   96.261520   82.856628
H   50.324471   34.368946   29.449253
H   35.929703   96.871613   48.246140
H   42.222084   35.566189    8.034359
H   19.779045   64.620728    8.524515
H   48.224220   79.748787   82.557503
H   80.409676   36.049881   55.744263
H   71.135361   93.040001   50.958282
H   63.344765   25.461727   21.414282
H   76.780518   94.999916   14.684841
H   73.245621   23.066059   96.266373
H   71.133865   31.317080   75.784187
H   76.668297   38.189243   34.220753
H   50.152134   54.992172   19.524796
H   76.033409   27.795866   97.251404
H   55.580803   35.127411   96.807587
H   35.696480   34.511230   97.224342
H    8.863567   83.866318   17.625782
H   53.518478    0.904914   63.009617
H   39.215096   39.981480   38.382751
H   89.841316   94.602798   68.750114
H   16.069706   87.468460   36.616089
H   39.446255   58.889160   59.276192
H   84.583763   25.485233   38.575203
H   49.151852   67.287560   38.049210
H   25.290073   20.683571   25.581652
H   76.457207   37.527794   24.980810
H   86.927704   29.020189   93.593300
H   67.915398    3.609962   55.932766
H   24.369030    8.575348    2.293173
H   98.228416    2.384146   48.023781
H   89.243866   42.935463   84.531311
H   73.677917   38.127106   35.933437
H    7.729922   73.826126   99.453606
H   82.002716   12.779161   94.996407
H   54.659801   50.565651   84.149811
H   43.891670    7.693287   59.261841
H   72.057549   19.639965   16.543756
H    5.933592   71.706429    4.340585
H   56.689144   80.002426   76.998955
H    5.223596   51.917442   16.694000
H   98.258057   55.801434    8.999309
H   42.937374   76.345055   40.046799
H    4.474445    1.261824   34.642151
H   79.314842   69.653687   25.641619
H   86.405365   73.139008   94.410599
H   86.544838   78.703873   70.235886
H    3.830023    3.890237   12.900726
H   17.174706   52.448448   37.492607
H   14.201230    0.892634    1.903027
H   38.332043   85.965950   80.667435
H   16.782265   59.375179   29.899559
H   78.035110   96.443604   73.733345
H    7.280556   51.459396   23.560833
H   31.912308   46.569977   70.006104
H    7.286020   86.524521    4.045665
H   58.471596    4.565456   60.782440
H   96.565773   33.781822   32.037525
H   28.303564   32.445896   63.778973
H   12.761484   87.475945   59.022720
H   66.437958   59.365120   44.877464
H   96.907738   61.361195   84.415482
H   61.105145   36.316628   63.584694
H   96.617813   78.763084   58.347866
H   71.227295   11.865843   51.067616
H   49.318455   29.366261   14.927458
H   58.292130   40.414303   24.319983
H   19.910891   34.205185   43.029274
H   13.061597   14.597763   36.471306
H   18.027975   13.434246   68.236328
H   55.546745   29.382801    9.357994
H   96.556450   61.400597   13.019239
H   71.676567   14.290994   71.101791
H   57.892479   97.759003   99.570335
H   37.617920   44.535435   12.488133
H   15.466264   15.305521   12.921799
H   52.230865   34.897861   51.206978
H   62.180653   10.877154   12.396737
H   15.949708    5.909408   15.361595
H   88.180992   47.542007   10.380486
H   26.211342   36.662331   60.986336
H   39.845661   71.207901   17.955458
H   60.296192   17.126072    6.990088
H   86.273689   13.476505   90.094521
H   12.178967   74.069664   54.437805
H   41.406952   11.688710   80.858498
H   14.523937   13.700317    4.905045
H   72.612091   71.251709   43.030296
H   10.375774   39.235359   64.621498
H   22.416605   93.037239   13.924498
H   17.273888   72.285194   56.778416
H   49.599880   67.769547    6.169885
