100
TIME:    0.900, STEP:   900
H   56.458900   39.486671   98.322037
H   76.235085   53.542744   34.771908
H   95.227692   38.653210   12.772392
H   81.627670   95.569176   90.831047
H   87.109833   44.896492   41.301964
H   14.060265    0.234124   67.876396
H    5.802208   22.109533   60.833942
H   49.148071   66.462387   25.558823
H   31.504280   99.761948   43.435562
H   50.244972   29.306740   42.933968
H   16.539215    2.456114   53.056374
H   21.489269   68.803078   28.865610
H   86.013214    7.256117   35.676361
H   10.519030    2.302361   25.730350
H   91.448280   89.633026    7.509460
H   65.337158   33.016468   58.332504
H   51.707878   41.515427   55.297920
H   20.376724   50.933716   68.345016
H   59.278732   16.108522   10.779070
H   68.287209   86.662476   77.587852
H   10.869263   66.620392   32.816910
H   48.645741   45.287834   42.622478
H   73.727730   87.302574    6.599306
H   35.421799   47.475834   40.233170
H   97.395500   14.797733   43.202957
H   42.532246    0.793302    4.816524
H   84.471008    5.064297   17.825674
H   56.600822   98.448151   96.521988
H   30.740799   30.746698   14.628998
H   35.502605   68.564865   54.935848
H   51.505192    2.750582   38.193230
H   22.583563   27.646477   15.946541
H   33.752293    2.634434   78.876060
H   16.129295   91.243172   33.834923
H   58.400917   90.886940   79.531921
H   50.806671   55.184643   17.547560
H   66.119835   71.576027   79.381844
H   26.792465   42.481625   85.951973
H   10.258976   61.295647   55.866890
H   78.423042   27.927988    8.843809
H   73.735672   87.062721   63.547993
H   50.734306   52.251579   45.083576
H   18.993063   68.896973   66.479958
H   21.888102   27.854086   68.730476
H   78.586662   96.382462   33.123421
H   66.456993   80.123100   86.847649
H   45.583241   74.291611   35.313667
H   56.287479    4.649782   24.264799
H   91.339104   57.910278    8.571908
H   44.765667   44.447971   20.717995
H   43.475956   82.754143   62.906330
H   48.870811   80.226074   14.977959
H   27.548708   27.227234   50.600021
H   55.848385   92.519386   71.531204
H   69.111771   37.403553    8.043207
H   94.692337   11.586088   61.988678
H   53.306740   63.577858   41.584999
H   59.042664   91.893517   90.372879
H   61.256866   76.795532   42.390079
H   99.628967   96.963989   38.011436
H   16.473192   36.716866   44.224136
H   66.968384   19.568283   54.634132
H   35.279167   45.780586   71.814552
H    4.840164   46.690262    2.703344
H   68.046562   88.962578   79.376869
H   46.056831   97.531502   99.400887
H   15.359888   79.477081   10.514000
H   18.196815   69.009018    9.227805
H    1.756779   85.118073    3.785050
H   48.617424   93.410301   99.837982
H   93.452461   34.165775   51.353336
H   99.758560   21.656441   22.514990
H   48.310410   73.787727   38.671589
H   10.381728   92.425659   49.718925
H    5.565283   29.924292   69.623955
H   46.936779   65.255638   35.371243
H   48.669514   48.540154    6.959278
H   74.263962   91.871895   64.145462
H    4.690620   50.866062   27.723778
H   55.387863   59.939804   43.385315
H   28.494198   38.592571   33.778957
H    8.850418   50.105240   11.520149
H   74.741539   22.278711   15.620281
H   12.081032   89.175758   81.225014
H    8.506586   92.587952   60.507545
H   30.577984   42.113415    4.281912
H   27.263693   37.915596   66.458557
H   70.443390   33.237648   86.385689
H   74.360054   44.061211   20.836830
H   86.764725   72.251083   56.387280
H   60.854252   22.029596   52.468090
H   44.877842   63.194633   50.670738
H   43.029228   54.596497   88.541069
H   34.216286   67.825706   87.500877
H   41.032261   69.113892   36.766716
H   68.257889   60.190910   20.962990
H   91.164871   19.329359   85.429077
H   10.169646   23.900635   41.636108
H   65.838127   40.729839   69.661812
H   95.134476   55.587337   11.002913
