100
TIME:    6.328, STEP:  6328
H   89.385818   41.712273   93.352554
H   25.710960   47.769817   77.106850
H   88.538025   29.165165   49.063053
H   82.538742   71.936554   93.303223
H   38.491730   79.974533   94.127960
H   29.889721   94.352501    5.428958
H   21.320171   88.634254   85.310921
H   22.517975   36.054165   27.177746
H   98.073555   77.881943    1.761091
H    1.919421    7.244586   55.484531
H   11.639877   20.863119   30.204838
H   14.317726   40.880436   42.494713
H   40.264023   78.923576   96.239677
H   41.755745   85.571205   38.804028
H   57.465889    4.784668   46.588497
H   47.089111   58.259010    7.761494
H   15.247121    0.519802   49.451149
H   36.388447   86.918701   80.163612
H   43.826351   43.821602   96.746765
H   22.030556   71.428261   47.172264
H   88.764236   26.244846   85.490013
H   69.051865   52.484497   80.390640
H    1.254402   43.157005   51.299332
H   31.095196   12.529512   37.101009
H    3.259386   84.317795   83.273598
H   17.699728   39.588303   95.360847
H   16.408009   79.430374   25.524199
H   98.604050   51.809349   75.944199
H   48.767326   23.217575   58.043976
H   43.636219   34.221977   86.446732
H   65.104256   89.499657    8.727715
H   65.311035   77.674591   13.449364
H   16.092602    5.496139   67.873169
H   45.475258   93.799362    5.163340
H   23.469849   80.551674   10.050809
H   22.719763   81.064674   99.531013
H   86.736458   72.790161    7.086984
H    2.445912   43.148785   68.989876
H   77.966187   43.539421   31.081709
H   67.165680   19.776886   35.908146
H    2.778156   73.310555   91.430641
H   66.924591   66.418396    3.016027
H   65.746063    1.447603   58.551193
H   75.278763   18.858053   99.454552
H    7.749004   82.221054   97.613876
H   96.442528   83.613754    8.869406
H   91.172165   68.976089   86.207603
H   56.577366   60.546326   60.118702
H   50.001953    8.365662   92.047134
H   58.598400   27.048399   41.078209
H   43.067081   58.716034   20.133812
H   12.662718   76.548752   58.642372
H   40.134449   58.700623   35.348186
H   30.150032    3.953107   11.053828
H   36.950584   13.160296   54.172184
H    1.477276    5.877281   77.206741
H   97.420433    6.954747   57.832924
H   54.859528   79.285866   50.561142
H   89.352997    6.142699   25.682152
H   41.435638   14.178678   83.627220
H   58.875843   84.290176   21.015675
H   74.324837   69.041946    9.030942
H    3.667859   75.471596   99.540497
H   77.572739   76.234406   55.337009
H   83.492401   55.438129   84.867851
H   12.607887   27.689323   20.344587
H   79.861008   67.135345   72.577896
H   43.247597   79.442116   68.717590
H   72.289955   95.096619   63.353069
H   58.586716   66.423759   88.408173
H   21.090050   64.844009   86.240242
H   52.193981   41.511078   19.927959
H   94.393295    5.298828   99.495667
H   90.906181   48.919506   27.164824
H   67.267693   37.662838   81.103165
H   75.257362   13.137791   70.134277
H   41.500576   78.096581    2.969550
H   29.281277   36.947792   63.913231
H   64.961693   34.931393   88.282921
H   89.194321   64.303566   75.758354
H   34.701653   94.747726   58.198643
H   16.145395   85.508865   57.603191
H   18.134628   12.944842   32.590210
H   85.505699   53.659935   85.452080
H   44.208488   53.066086   34.323669
H    5.649271   41.492332   81.218658
H   89.787529   43.255638   25.286932
H   57.800652   98.700439   29.966293
H   87.006454   41.838890   76.435921
H    6.858047   48.926083   50.426636
H   82.990471   15.126053   67.097580
H   46.506817   71.405472   54.097496
H   91.090576   17.390118    8.358531
H   58.843189   97.085640   53.486298
H   47.185219   82.905991   61.496738
H   16.588486   45.845367   40.599625
H   60.315392   30.830523   73.260193
H   26.062822   99.569016   51.845711
H    7.261810   64.128044   15.000366
H   32.267498   16.248562   88.144066
