100
TIME:    7.727, STEP:  7727
H   94.777092   13.418330   92.071732
H   87.076157   23.578358   65.318741
H   12.590998   29.814781   32.636501
H   82.773560   14.297890   16.619110
H   25.958441   92.110466   56.194260
H    8.191409   92.836861   43.976952
H   47.997387   83.101822   94.714615
H   12.559334   57.084705   98.725655
H   63.683464   43.373901   13.699379
H   63.707954   27.333269   10.261898
H   81.508316   77.155273   95.445969
H   60.925316   11.005070   42.912376
H   51.024620   94.281219   57.218121
H   72.486458   81.259102   45.268787
H   74.458138   79.819107   79.309845
H   90.836746   35.897400   91.632111
H    2.747595   93.052353   76.807648
H   66.305511   18.842972   31.670204
H   65.611801    2.508705   70.448959
H   84.337906   41.721180   42.422676
H    5.745575   86.969910   47.518253
H    3.175354   54.341690   61.252853
H   82.575615   31.779135   11.271173
H    1.107821   29.265596   33.199287
H   53.222115   73.371033   93.605568
H   11.173901   98.311508   63.738403
H   95.770844   21.274164   53.286030
H   80.559593   17.109930   22.185381
H   79.186867   50.145710   91.913261
H   97.281342   99.595840   97.663383
H   20.160978   14.951004   98.043434
H   53.644741   39.021992   83.936989
H   14.636078    3.138717   93.906136
H    4.585443   65.589272   46.224533
H   88.651878   74.627708   95.168060
H   44.332340   90.640305   95.133522
H   20.919178   21.556162   17.322538
H   44.620667   17.543003   67.713158
H   18.912106   13.059156   95.508980
H   35.396599   88.807388   45.979149
H    7.166231   21.315504   24.389250
H   49.024513   71.904587   74.436211
H   77.785797    9.839842   59.601665
H   85.948639   42.339806   36.240597
H   86.395622   27.024746   17.330307
H   78.382927   10.295825   14.553057
H    2.103131   45.059090   99.634895
H   56.659237   74.955582   46.680508
H   90.899239   92.500435   36.240646
H   87.969971   48.343319   43.260712
H   42.971020   23.651739   34.880325
H   80.660553   46.730816   66.807373
H   69.153862   66.812500   54.098763
H   97.755157   81.131714   72.787674
H   25.559948   35.762115   66.071304
H    3.219728    4.405669   29.581482
H   86.110184   66.587090   90.889366
H   50.687180   47.167778   14.524850
H   99.685905   65.262672   18.284161
H   49.115715   21.710766   43.836327
H   47.125988   19.230679   11.938941
H   24.671608   56.020248   45.732590
H   98.646111   80.006256    3.606873
H   73.639885   83.855301   17.349941
H   39.020683   43.701885   15.150802
H   26.665768   58.141258    3.064483
H   67.616791   15.505398   40.122356
H   46.609077   59.452873   35.597885
H   42.015343   94.573402   75.609467
H   86.956108   36.751286   85.454758
H   76.665077   69.657089   69.461464
H   36.967846   95.032616   22.432528
H    3.175738   36.103466   63.632389
H   60.103748   60.376476   44.041046
H   34.687851   39.692791   87.168106
H    8.326198    2.800521   75.999611
H   68.559288   57.009949   27.780424
H   95.008835   45.472363   41.173443
H   32.050880   30.822086    3.889645
H   20.585804   88.092796   55.233223
H   62.083824    9.221719   41.815140
H   21.124729   94.581360   40.563351
H    6.624328   36.340855   65.824463
H   81.754204   73.375244   57.674290
H   76.089355   65.549217   98.707130
H   73.456284   92.879349   78.369476
H   83.223640   41.536629   91.996452
H   80.300438   86.751953   15.460976
H   16.041016   63.945198   64.993904
H   83.168365   91.365372    0.439806
H   40.243397   90.667534   96.641891
H   50.018650   76.623749   80.755989
H   80.769150   59.369083   16.545351
H   94.050941   81.961021   47.818493
H   22.997028   57.592911   93.645386
H   32.140137   90.601685   68.339287
H   49.269218   11.116315   92.801582
H   23.362421   68.789955   23.762106
H   40.616478   70.169258   97.819267
H   19.165537   80.345535   53.374508
