100
TIME:    8.786, STEP:  8786
H   23.160648   16.303411   91.102188
H   57.828262   80.964859   32.090000
H   30.794176    6.004328   20.205940
H   82.951309   70.667107   58.573410
H   16.469034   76.993896   27.480251
H   91.770752   91.689568   48.853325
H   92.496117   54.611786   77.529808
H   29.324020   48.701954    1.491712
H   37.651222   41.554657   47.040287
H   34.783241   42.538944   51.728157
H   83.002716   19.765747   93.437584
H   20.503433   64.087379   67.531990
H   83.495529   30.182503   51.978325
H   20.051237   77.994972   25.858456
H   87.320747   85.224007   28.382149
H   48.257629   43.273338    3.725770
H   17.589302   63.094944   73.212593
H   88.945816   67.312218   94.961014
H   82.110199   46.937908   26.242496
H   55.803333   19.233557   14.524286
H   42.903023   81.543365   18.777510
H    4.702721   55.747528   71.069229
H   68.436440   23.170397   80.972183
H    2.711432   41.934296   54.550098
H   15.347026   89.386246    1.425862
H    6.179913   67.092209   64.081360
H    4.451956   77.254349   74.296921
H   91.204712   66.540482   57.192848
H    2.213663   46.226437   41.852501
H   37.886620   73.385849   81.850616
H   61.842121    9.913754   14.258720
H   20.510548    9.765587   85.900063
H   89.230728   25.656498   89.309219
H   49.331833   68.538239    1.612007
H   62.296455   94.446541   59.601284
H   36.389088   73.589447   91.804756
H   22.491055   82.772224    0.767891
H    0.851652   98.162544   42.444321
H   74.213310   89.986290   92.884048
H   35.650627   89.667336   29.298418
H   34.790115   57.649147   49.338833
H   59.777679   76.057465   28.502167
H   86.899506   16.192432   36.094799
H   18.328922   60.120468   39.782597
H   94.535614   85.248314    7.952764
H   64.712364   30.490608   18.855406
H   10.382150    2.650175    9.804752
H   56.723873   85.862946   12.205137
H   21.854538    4.794488   93.996277
H   10.202047   64.462212   69.216606
H   42.898304   21.412033   46.046234
H   32.129192   48.463718   97.289619
H   91.114021   72.952942   92.595291
H   73.225708   63.857613   19.517994
H   41.240852   28.567625   75.071899
H    4.538712    3.291704   93.530609
H   53.245117   36.030312   91.609077
H   71.832214   47.158150   87.247215
H   83.210594   10.008180   36.984344
H   79.233009    3.108420   13.715843
H   13.927963   69.980103   29.370434
H   87.085594   46.163223   97.815331
H   70.543243    7.741826   30.988068
H   46.359127   89.624084   88.598953
H   81.055191   59.121693   13.770575
H   61.611031    5.495452   65.681252
H   82.651016   52.115536   91.249619
H   73.456589   20.018253   86.224213
H   94.794189   18.480400    9.189280
H    8.464095   89.942764   83.208649
H   43.033039   97.599831   56.760445
H   49.761024   59.870506    0.056808
H   34.128036   83.719048   36.477093
H   36.794308   93.354164   81.119606
H   85.701996   41.252140   67.462082
H   33.364037   70.674187    4.743615
H   64.739090   65.350830   46.564423
H   44.757420   76.230797   99.666077
H   82.833717   27.711468   15.707975
H   68.651695   30.404848   63.999474
H   82.815895   20.177561    5.110301
H    0.591137    1.450449   51.966652
H   73.609032   54.051182   66.678185
H   54.611107   63.996315   60.950993
H   24.525803   99.304428   96.049591
H   49.083477   31.777504   51.909760
H   53.951923   64.538383   42.493629
H   97.332085    2.009618    4.480707
H   38.020267    4.982271   56.332649
H   89.538315   47.797546   38.295128
H   83.581993   47.848217   19.006371
H   28.373926   56.270447    0.938307
H   48.652988   91.138969   98.439453
H   96.398544   46.209339   19.224703
H    4.684959   62.734310   17.979265
H   19.609207   48.782043   13.640789
H   65.210960   71.889305   31.898087
H   21.318300   21.192020    2.500826
H   90.168388   74.742271    9.117199
H   84.943558   53.169224   51.357441
