100
TIME:    3.812, STEP:  3812
H   59.532135   72.441528   95.656021
H   95.231804   11.424601   18.459455
H   45.279549   48.154259   78.595528
H   82.116440   75.595512   31.213934
H   61.027313   78.306114   62.345535
H   68.911873   97.078270   56.261818
H   53.182354   18.741573   88.556297
H   20.270615   18.388821   58.189632
H   59.921700   19.785263   60.136410
H   70.668877   71.118034   56.965607
H   45.672073   19.626362   72.557686
H   10.345871   14.766277   21.586550
H    0.781752   31.076233   46.246933
H   66.333031   93.326210   47.335629
H   26.869797   29.523834   67.534645
H   48.252594   78.317558   16.611940
H   17.568916   34.104755   20.409750
H   82.599327    9.323079   67.388367
H    4.641724   38.271965   64.191406
H   89.817375   24.864206   75.871330
H   38.067230   76.721069   53.777168
H   27.840500   49.144470   94.651291
H   34.848335   63.619469   23.284710
H   64.865395   82.400635   23.960705
H   93.245758   83.848740   64.692299
H   29.177603   14.025256   31.872187
H   33.365528   84.017166   75.607094
H   10.896747   34.370972   92.775200
H   94.058670   94.946732   76.977211
H   47.161789   96.492363   86.431946
H   66.083534   63.883930    7.785637
H    6.449253   47.188690   46.368111
H   38.869572   89.578606   41.212021
H   39.168091   24.375587   11.157970
H   86.014664   70.762108   56.851280
H    4.000078   83.938263    7.528524
H   45.419189   64.932114    8.835979
H    6.436265   89.188423   91.444160
H   84.166992   98.361931   74.901237
H    4.146008   55.317238   37.954441
H   74.728714   86.982986   32.154766
H   89.020279   82.943146   81.892532
H   44.075825   86.359375   76.817863
H   35.936493   76.657684   53.450562
H   25.993231   81.488831   82.313660
H   28.907619   35.624866   98.646095
H   71.515915   32.148033   62.058052
H   56.442997   34.632324    4.442887
H   76.457382   16.740189   92.411407
H    5.826533   88.758064   17.048611
H   43.253788    1.619111   93.609940
H   90.389297   10.013798   23.810963
H   87.947365   44.112000   81.474861
H   88.416588   45.010994    0.030426
H   37.276566   92.661560   32.769138
H   98.335892    8.524343   62.857330
H   37.915722   79.552940   18.540503
H   42.206535   16.891174   15.366556
H   90.921516   99.834366   18.833439
H    7.467000   20.790754   55.188240
H    0.164074    1.297593   17.182880
H   63.619286   92.460526   22.872887
H   32.856647   47.159355   72.070183
H    4.802180   62.530838   23.643879
H   83.627708   56.386669   50.564259
H   67.167976   52.766975   71.578995
H   81.724380   80.152344   51.105999
H   17.045052   35.550186   48.438244
H   46.892662   75.880325   21.150066
H    7.617922   39.875244   93.706146
H    0.983328   36.031776   16.420357
H   59.649376   25.012451   35.718357
H   58.442093   29.749172   64.011711
H   46.295498    8.148098   76.658165
H   45.962704   34.073269   90.373085
H   15.773984   51.886948   39.430248
H   13.059488   96.147507   58.466343
H   11.075023    1.462663   24.962023
H   44.311218   42.321682   60.216431
H   12.577694    1.343478   92.514091
H   85.471909   68.718552    7.823499
H   27.343323   69.122818   68.020386
H   58.984325   70.886841   92.974152
H   12.410124   38.360420   15.250091
H   66.716537   10.440931   78.221817
H   63.562168   49.076530    6.500030
H   21.749594   26.189476    5.314199
H   17.316729    0.096497   56.099434
H   34.794540   81.926384   97.013557
H   29.306265   52.441048   60.485001
H   80.025330   79.267967   13.964272
H   60.345451   82.186089    6.162113
H   29.810104   41.896500   13.792337
H   15.671587   44.459045   83.841850
H   90.682350    8.273205    3.683398
H    8.777205   45.199104   70.554131
H   60.023651   86.443596   17.957495
H   20.858953   48.694580   95.039375
H   27.118370   53.282330   25.741806
H   75.988258   80.810555   30.517622
