100
TIME:    5.203, STEP:  5203
H   65.464760   44.879677   94.382523
H   56.780800   86.806564    6.170904
H   69.191788   48.228348   62.272396
H   82.349915   18.286808   54.969940
H   48.568253   89.800903   24.629791
H   47.339100   95.571297   94.016502
H   80.280418   12.668386   97.334381
H   10.940758   38.727283   30.471661
H   25.728264   86.046082   72.577553
H   32.654945   91.090736   11.432333
H   16.284637   75.596619   38.570255
H   57.258820   84.490273   22.573618
H   12.052780   46.955009    8.025635
H   97.459862   89.038765   53.191551
H   43.787712    5.274776    0.667918
H   92.321884   56.655655    1.146246
H    5.712773   26.109005   47.037964
H   12.330434   41.657475   19.162985
H   26.306911   96.624100   37.475933
H   52.337372   95.323524   70.577065
H   55.523323   38.242500   16.026302
H   61.197021   50.991043   76.194778
H   16.276482   52.306557   83.485840
H   35.624104   99.071259   20.652744
H   43.494415   73.536377   74.965187
H   22.828112   72.845413    1.151724
H   13.417982   26.193928    3.200637
H   93.528084   99.298172   38.756516
H   24.305580   21.148836   11.223915
H    0.500122   62.065453   97.012611
H   20.825500   88.618683   97.734138
H   94.277931    8.760371   17.596245
H   36.849468   87.806419   66.524284
H   97.940048   96.898918   52.556679
H   51.439178   65.613174   41.554070
H   24.925318   92.949623    3.068815
H   78.834015   13.990295   18.441204
H   48.941494   63.739567   89.603081
H   25.451740   68.052666   40.102615
H   73.128334   25.095596   47.395992
H   79.663727   34.710426   64.926125
H   64.004478   45.371727   47.238476
H   56.057323   94.700790   77.291512
H   47.113804   99.974915   89.457932
H    5.334379   26.608276    1.344806
H   10.961157   62.156086    4.298614
H   82.383102    7.794282   75.410103
H   56.517284   48.959183   90.510109
H   17.120216    1.538197   36.924141
H   35.000263    9.924337   19.759933
H   43.147663   67.327393    8.274905
H   57.988335   80.940201   32.494781
H   16.797085   52.177490    0.686320
H   56.199646   22.310883   61.410301
H   26.524670   14.570729   44.602062
H    0.076008    7.060672   15.504410
H   26.099693   39.416512   50.836082
H   38.629044   85.528313   79.537582
H    0.627184   58.608658   12.045471
H   15.675211   27.707912   15.624886
H   87.909576   36.608524    8.729787
H   14.251902   79.513290   59.936829
H   27.291620   52.239914   76.685120
H    0.319698   70.106094   85.878006
H   38.838440   45.289410   80.101601
H   81.717552   83.616600   53.825294
H   70.122009   28.244354   18.263149
H   20.959145   15.102302   14.936088
H   16.218039   75.931938   33.909637
H   35.798668    9.837400   90.777100
H   56.814095   41.388260   99.732826
H   44.955711   78.847427   37.561012
H   67.745987   60.942863   28.343140
H   15.671574   20.121502   94.009453
H   13.029382   36.057804   95.820282
H   48.662064   41.036385   45.833195
H   39.353603   75.585396   83.066093
H   76.426727   10.508553    1.780800
H   11.016751   38.235874   75.734474
H   44.360550   25.586121   72.678162
H   12.686405   83.109085   90.960442
H   31.713097   78.207108   51.706078
H   46.976868   94.131897   25.450956
H    8.108454   57.391159   88.203491
H   98.985634   23.433823   43.379845
H   31.544292    0.168160    3.095218
H   14.651342   25.052444   71.642624
H   39.705597   88.730240   41.634613
H   63.660507    4.477940   85.636971
H    6.323085   95.208786   10.212942
H   36.950890   54.377628   43.339642
H   63.268208   86.794891   32.665573
H   18.975634   83.637123   21.360554
H   50.117592   28.833082   77.629478
H   66.634453   83.676598   35.644535
H   23.668091   90.271332   98.707001
H   49.612480   66.270195   37.959900
H   25.963560   60.538116   72.774376
H   60.854156   59.278385    9.230583
H   62.387844   45.115765   96.518707
