100
TIME:    4.665, STEP:  4665
H    1.847973   94.217140   94.875076
H   71.639503   57.654701   72.249939
H   59.941788    9.523025   68.586418
H   82.259613   40.452995   84.458748
H   53.387070   46.677826   39.216553
H   55.683781   96.154152   40.736820
H    8.478333   76.341370   55.262081
H   53.226494   92.184082   79.869377
H   38.953331   37.772736    6.441206
H   47.357674   83.365852   90.365387
H   66.328094   53.948887   90.393097
H   77.791451   57.522957   60.869164
H   46.383774   79.488182   61.484131
H   24.097542   90.697029   12.248027
H   37.244957   53.330658   26.529530
H   13.954388    3.711027   45.805603
H   48.975624   90.524567   98.061699
H    0.825976   67.833199   37.812939
H   17.927341   74.056931    9.133570
H   66.831566    6.749540   33.947487
H   87.449013   91.801483   30.628468
H    9.618439   50.276840   22.010406
H   23.459557   56.682076   98.878143
H   85.612427   92.631012   60.610580
H   62.736847   16.201302   70.991920
H   25.280619   88.746689   51.742290
H   59.811615   48.559437   92.527565
H   38.922680   74.186142   20.971224
H   12.607131   72.337334   36.654427
H   79.870361   75.380821   54.242531
H   99.651146   40.375057   40.298988
H   60.308147   23.623680   67.401634
H   98.952980   27.168352   18.056997
H   75.208694   46.203278   75.222359
H   64.812012    6.281851    8.795143
H   78.158264   50.811649    4.761211
H   27.233538   33.694321   76.049118
H   71.177513   73.582542   51.636738
H   48.162571   79.775444   92.239426
H   23.802919   75.462105    5.066412
H   16.432053   16.251974   52.251080
H   12.357183   21.225199   21.966364
H   51.423214   91.474564   38.431725
H   81.467407   90.948975   36.854225
H   52.000912   47.833237   55.307392
H   17.902805   51.894550    2.111589
H   78.179977   78.536156   70.246498
H   56.488552   43.417953   57.221687
H    1.395229   46.093845   58.387169
H   23.716679    1.735632   57.386932
H   43.188709   19.267921    2.603354
H   31.841955   30.861868   67.814545
H    5.637483   49.057983   31.932718
H   68.658684   31.090652   37.669212
H   69.360687   67.418465   40.025417
H   99.403183    7.626595   33.819199
H   91.993011   54.940163   99.667656
H   78.690079   36.336281   93.394760
H   58.194298   35.877304   53.349213
H   51.176029   86.355362   30.926888
H   53.972626   61.626148   50.675018
H   33.344658   84.520920   84.277878
H   90.767204   88.951584   13.577415
H   63.378082   67.175400    0.482359
H   17.483526   88.258301   30.000593
H   14.767017   10.361874   22.014532
H   13.286692    9.644645   92.287827
H   58.122322   84.333206   89.216576
H   89.404709   14.589172   67.653229
H   24.899580   82.778809   91.909973
H   73.897499   77.993210    6.186870
H   89.316620   96.702499   98.170860
H    2.824166   87.556709   42.138748
H   27.513775   54.169994   25.974846
H   87.089607   35.290241   55.036831
H   35.941864    6.555014   82.033829
H   90.506668   22.214813   73.551598
H   51.150509   45.687946   72.071404
H   85.216576   39.816151   69.733528
H   70.744751   54.888897   19.027184
H    2.158811   77.543228   58.804897
H   91.345482   74.693558   96.692650
H   12.945513   85.134583   74.215439
H   71.093491   11.352987   37.341080
H   25.182753   57.087555   95.533073
H   43.927914   80.408531   65.734955
H   78.719521   64.169418   45.988785
H   31.045088   31.802889   47.229202
H   52.495956   34.431923   90.037117
H   53.890560   17.344086   90.980148
H   14.933738   25.328800   31.978067
H   23.461271   46.332008   22.416151
H   84.489128   67.492851   79.756149
H   98.117142   96.199097   41.355457
H   75.935509   31.867401   23.282883
H   79.231445   11.516113   26.495827
H   92.316887   35.395290   68.900482
H   23.989241   55.957367   81.385857
H   86.483368   56.959278   54.295143
H   28.972178   58.919582   48.346447
