100
TIME:    1.926, STEP:  1926
H   87.075104   45.397263   97.382706
H   47.695076    9.169050   99.491814
H   12.861044   12.468333    0.726214
H   81.799881   53.299278   34.592335
H   77.920044   27.134907   13.483225
H   98.150398   99.121513   69.484703
H   52.027782   91.389931   41.068565
H   68.506493   55.224590   31.355064
H    6.283241    1.116248   78.852745
H   22.207308   44.037865   83.110130
H   21.103195   43.739185   54.226818
H   82.330566   20.230852   55.834084
H   20.749874   45.181786   33.700409
H   59.717278   99.139381    3.808614
H    3.926792   97.989471   58.192787
H   24.084869   43.274368   73.166763
H   69.219940    9.366463   48.711609
H   42.302277    1.039102   32.775681
H   75.260704   59.153366   64.829865
H   40.627945   64.910507   47.463661
H   49.985062   64.478943    4.969772
H   47.025333   46.642036   55.260361
H   60.029152   78.958183   77.244766
H   40.095268   59.781071   64.033966
H   60.698967   33.424706   50.772400
H   37.827763   70.218216    8.648650
H   95.997414   62.417751   38.185673
H   70.030838   46.338879   30.435171
H   53.049911   23.833666   66.129234
H   74.844917   43.171616   36.499630
H   91.865120   94.759247   57.005863
H   87.366089   99.301140   20.964577
H    6.021923   27.566570   71.306244
H   59.479424   97.216446   90.612350
H   32.898079   13.329438   42.007843
H   40.013195   35.781246   14.018792
H   64.526520   34.002785   60.226566
H   84.385887   23.702831   58.352764
H   64.136642   39.393578   57.529877
H   81.785439   31.877306   89.567886
H    3.621353   22.269293   87.720261
H   58.523285   98.296455   93.286911
H   27.830603   75.049591   40.590263
H   56.370949   45.050728   69.047287
H   89.589287   55.898861   20.923254
H   53.239483   99.652290   90.991127
H   56.416859   29.637629   44.080757
H   56.342274   15.213343   87.747917
H   21.329725   72.937401   67.647202
H   66.283348   60.064350   48.956928
H   43.397678   83.700432   73.724289
H   98.733635   85.020844   47.624363
H   48.832382   33.176331   91.010551
H   32.091137   75.783638   16.805544
H   87.431152   27.348085   16.749464
H   95.976089   10.507814   27.061218
H   18.352396   33.973274   39.166145
H   82.643158   95.000351   63.946365
H   42.175919   20.146799   63.624504
H   31.922565   75.827179    8.830033
H   81.194046   89.004219   64.228386
H   30.553806   10.017191    8.208024
H    4.871555   75.814400    1.426958
H   75.295105   52.271454   74.851418
H    8.767547    7.017147   74.926422
H   83.028114   46.525826   60.065502
H   33.042465   14.950221   60.049755
H   47.323845   27.687641   58.276539
H   52.895081   11.396240   39.437508
H   69.402161   45.015747   97.677521
H   60.873329   64.355782   39.048100
H   15.159904   87.604767   97.633995
H   81.412598   23.038860   12.362492
H   87.803703   27.498098   88.740654
H   55.030617   31.384169   47.402081
H   71.192680   31.010771   66.332970
H   41.823364   59.615074   25.111067
H   22.467312   24.783846   20.805202
H   53.872360   47.860203   39.166496
H    5.070662    4.059393   54.994545
H   48.572399   49.207012   95.101616
H   85.833023   56.805801   25.726839
H   39.660839   39.403625   13.341763
H   82.661751   76.971901   87.511078
H   58.549377   28.411644   61.048340
H    6.961679   79.800789   75.530495
H   95.787895   63.317032   15.382542
H   86.959961   51.094299   75.720284
H   95.651558   86.935905   12.442389
H   96.053787   30.034454   93.068153
H    2.842409   77.429245   74.135330
H   20.791780   40.359066   70.219139
H    8.860176   85.341537   67.915726
H   33.383060   30.058378   56.677902
H   23.292637   77.210632   60.343925
H   53.001297   19.675623   67.968506
H    9.725789   78.209755   26.423431
H   13.936755   32.636414   25.219681
H   16.962807   45.152523   83.718765
H   58.852463   29.231686   12.184296
