100
TIME:    1.408, STEP:  1408
H   22.104967   92.900620   97.856949
H   62.104164   81.085167   66.816460
H    3.957075   75.201363    6.807543
H   81.712936   74.640221   62.987644
H   82.559723   85.614937   27.527611
H    6.182726   99.682701   18.184404
H   79.176460   56.413639    0.560209
H    9.220276   10.412439   78.916466
H   19.016670   50.919968   11.458001
H   36.362099   36.600151   62.828102
H   69.286301   22.896198    4.124147
H    2.099004   94.266640   92.706490
H   53.698593   76.521355   85.185081
H   85.365929    0.736178   64.390739
H   97.626198   44.257641   83.091476
H   44.912048   88.582207   16.164536
H   10.866291   75.110275    1.550874
H   31.232651   26.229797   50.733688
H   67.190666   37.421173   37.541004
H   54.582550   75.912949   12.195780
H   80.723923   16.046158   19.029106
H   97.355949   45.958336   99.365761
H   66.945198   83.171043   92.064865
H   88.223045   53.568485    2.503200
H   79.226067   74.507027   46.950790
H   40.202930   85.654831   57.200096
H   40.665413   83.948685   27.906454
H   13.739098   22.160381   13.313018
H   41.786636   76.836853   90.615990
H   54.982037   55.991989   95.320976
H   71.488472   48.307129   97.995605
H   54.659122   13.612285   68.918465
H   69.536331   65.466270   24.640715
H   37.593102   44.687874   12.434738
H   45.773781   52.486183   10.466721
H   94.974518   95.089188   15.799493
H   14.844876   52.972511   19.410040
H    5.797152   33.183743   21.800472
H   87.421982   50.451347    7.176231
H   30.575899   80.371284   48.813114
H   39.019653    4.495152   75.516403
H    5.078178   75.050636   68.950333
H   23.368765   71.943298    3.175182
H   89.449409   36.368126   18.401144
H   34.522179   76.337173   76.596390
H   59.922359   89.772224   88.888649
H   50.947254    1.693245   39.654488
H   56.314610    9.880083   55.696987
H    6.189453   15.839203   88.308395
H   55.420055   52.180058   85.187462
H   43.437199   33.710625   68.262589
H   73.559227   33.086872   81.629501
H   38.086823   30.172791   21.094788
H   44.085537   84.233070   93.948441
H   28.668991   81.938034   12.353991
H   95.327957   11.052206   44.695160
H   85.512787   48.919838   89.899879
H   21.214962   43.919701   77.288406
H    1.323805   98.259338    3.390007
H   66.103882   36.011684   23.562706
H   48.518688   13.094157    4.617748
H   48.938477   14.839651   31.647163
H   69.737656   11.138123   36.963966
H   39.724167   49.453659   88.912727
H   88.208122   48.389919   26.685152
H   14.849470   72.277229   29.437300
H   74.601974   97.041901   35.041332
H   83.105492   98.061508   33.513142
H   27.076492   48.616425   71.926155
H   58.907494   18.961027   98.768280
H   77.321663   99.599953   45.260685
H   57.870213    4.796360   59.709900
H   15.187416   48.659847   25.645252
H   99.201347   60.279884   19.526970
H   30.057610   30.647116    8.133545
H   58.947674   97.811790    1.189752
H   94.792015    4.510661   15.948071
H   98.130722   58.656242   92.198013
H   29.041780   49.377781   33.388634
H   30.474655   32.270950   99.620827
H   38.435452   43.848064   64.141441
H   46.967068   53.422867   69.041336
H    6.886349   30.756876   64.004913
H   47.028400   32.645977   34.824745
H   83.771210   60.814308   11.262583
H   18.884899   60.775066   39.559151
H   61.191856    0.979846   90.681885
H   78.621185   92.566864   81.106941
H   84.902046   15.777219   16.680107
H   41.852425   51.347733   74.548958
H   81.643684   49.458858   63.196117
H   82.464699    1.401538   60.348442
H   75.624138   69.817978   27.841974
H   83.316414   98.637779   21.753265
H   32.249851   23.609352   48.440422
H   10.216660   40.130119   94.723724
H   50.841751   48.482616   56.213806
H   12.034842   28.225952   33.508698
H   41.638054   42.919628   27.109631
H   26.682968   42.537746   62.075386
