100
TIME:    6.880, STEP:  6880
H   52.055740   91.092018   92.847183
H   10.467705   77.681648   11.910880
H   98.030579   68.878761   42.581669
H   82.631393   49.194855   63.048206
H   33.547516   24.219679   79.160553
H   21.327892   93.754478   60.096455
H   92.389664   25.907955   28.478113
H   79.131859   83.809265   76.495522
H   84.504341   24.809555   67.016670
H   86.842262   15.171492   77.097572
H   60.294189   43.074177   77.032585
H   93.249344   68.549500    3.203596
H    5.039658   45.541485   41.390068
H   14.424885   83.869789   80.811317
H   64.170479   55.477318   20.043880
H   24.894222    9.979094   61.940918
H   70.858406   37.029079   99.701881
H   48.193073   60.058228   61.027550
H   52.421871   66.979691   25.827244
H    7.160011   59.705196   84.755028
H   56.007767   71.292206   70.505760
H   21.972641   53.217285   33.382706
H   93.884285   38.667625   35.506485
H   79.807152   19.133028   96.104507
H   83.516426   40.541977   87.350258
H   15.167477   23.278023   43.444466
H   68.809731   56.485146   36.478115
H   52.026764   77.574852   94.188095
H   60.769890   73.299477   31.949987
H   64.802841   20.560112   30.328411
H   86.826790   38.998528   65.055305
H    0.164793   62.421246   62.348000
H   54.975834   65.108788   17.601690
H   68.798134   43.211716   81.908234
H    9.731697   38.757484   43.636742
H   70.704338   24.300041   97.795906
H   39.680542   52.575317   50.582371
H   79.628731   33.045574    7.944815
H   54.666889   31.511675   77.589340
H   15.174690   68.101562   79.339096
H   65.052322   92.253548    4.435230
H   20.405182   68.583069   31.196697
H   70.496552    4.759018   98.424400
H   40.031994   28.123190   53.425011
H   59.865807   60.440250   44.850651
H   89.316795   94.142319   11.111990
H   95.484665   98.995132   91.505577
H   56.607540   66.231750   94.273361
H   66.136482   62.647259   70.029800
H   70.186279   35.451435    2.481810
H   43.029179    5.423627   25.951897
H   39.495098   25.326210   22.407265
H   51.585316   61.901306    3.288482
H   17.368355   94.947678   35.410904
H   92.998703   61.536186   58.867924
H    2.164791    5.296631   58.415359
H   32.413960   91.026741   10.332748
H   13.756890   27.156641   36.343369
H   32.887917   29.469341   83.306465
H    5.010698   56.608791   67.927025
H   93.695915   58.618210   77.976578
H   54.733284   63.904007   84.055908
H   41.143803   37.804604   61.688202
H   15.476540   79.241364   40.348545
H    5.400884   11.349701   36.273823
H   78.698242    0.248271   52.983139
H   35.573654   86.221527   99.227798
H    5.117046   11.011596   95.106384
H   99.798988   55.433411   28.730938
H   69.770226   94.185478   87.245819
H    3.560611   27.286514   79.619881
H    6.696069   23.182369   60.351601
H   58.402451   77.995087   85.345276
H   78.752007   13.984642   94.367859
H   93.883904   38.450375   22.948948
H   88.304359   48.516857   32.993019
H   91.633392   30.319195   12.759279
H   55.215237    0.853398   94.395546
H   91.434715   33.309994   94.440025
H   62.123276   34.233986   28.202934
H   45.503960    0.458525   91.190948
H   57.565575   89.088577   11.423969
H   53.051559   22.175940   85.159744
H   23.483028    0.895308   35.035313
H   17.330458   18.536606   80.813591
H   92.945969   61.770348   19.551468
H   26.654436    3.120470   51.608345
H   66.678337   54.530102   24.242966
H   98.461533   11.105169   71.921272
H   58.055103   26.213863   70.158478
H    5.580651   44.931503   78.754807
H   87.349228   12.921287   64.613670
H   26.474613   33.953655   51.045540
H   12.192477   30.574427   90.706879
H   37.642128   33.461250   74.181549
H   62.181381   24.047796   12.088127
H   16.500463   62.508789   41.514465
H   24.997332   26.882126   40.765450
H   80.965813   66.511711   68.765984
H   66.553032    2.083652   34.968304
