100
TIME:    3.539, STEP:  3539
H   77.994293   97.477081   95.905960
H    2.825896   96.623108    1.239089
H   40.586945   28.513405   81.798912
H   82.070618   86.842766   46.178974
H   63.472549   56.423962   69.747894
H   73.144173   97.374031   29.224779
H   67.489784    0.306827   67.207344
H   41.727875   94.770920   83.254829
H   66.632561   46.033020   77.320183
H   78.129555   67.198158   46.274467
H   71.065872    8.641893   98.855431
H   20.766243    1.082635   41.018745
H   18.146950   47.593033   73.380608
H   79.850563   94.167671   26.559452
H   23.548733   53.909439   80.656441
H   59.229080    2.195103   39.273781
H   39.521889   16.048748   95.557480
H   76.767418   22.599266   76.852722
H    0.389877   26.818514   49.809475
H   97.173912   30.661749   57.284203
H   54.267441    3.898049   61.185776
H    1.667725   48.782059   17.899704
H   38.493279   65.839760   31.096344
H   90.230034   79.126434   44.237003
H    3.009852    5.498154   62.676125
H   30.430422   22.159601   57.459694
H   56.907696   95.364395   70.191750
H   33.931545   21.628250   83.752403
H   88.122620   70.177780   89.882393
H   36.693512    3.249276   64.728912
H   55.338642   39.404491   29.384529
H   89.211922   54.730598   71.641106
H   19.639521    9.552494   16.618025
H   27.633015   49.394478   22.658287
H   92.800507   91.398735   40.228256
H   80.260201   62.493351    8.470872
H   19.235493   74.929672   87.324760
H   17.719368   94.183037   72.178032
H   95.689178    4.309721    1.357232
H   29.859520   80.874207   16.475023
H   93.386658   77.614441   25.723005
H   13.556023   70.691971   69.066498
H   41.724316   84.722275   57.098408
H   53.369736   72.083801   26.758928
H   49.673130   92.261200   58.952694
H   32.429676   30.417805   97.538033
H   69.383102   17.300629   59.435776
H   56.428417   31.820578   87.551216
H   68.475998   39.349251    3.300852
H    0.100853   84.604912   36.141865
H   43.274616   27.976204   90.731476
H   77.121704   35.346291   41.733669
H   82.286247   42.529053   97.329323
H   94.740044   49.466156   87.983368
H   59.012924   68.734070   30.447485
H   97.994308    8.811773   72.150894
H   20.609529   87.430183   92.575706
H   62.534904   42.672989   22.399166
H   69.389275   88.299683   39.792248
H   25.481598   99.806320   62.953011
H   82.943275   13.992930   38.467266
H   73.308586   95.001572   35.226120
H   14.322583   65.788139   90.790611
H   86.056450   61.045784   31.056652
H   72.792854   78.190407   25.141020
H   83.938881   66.338661   55.437103
H    3.627522   70.712982   37.925884
H   35.902946   19.936529   35.387264
H   33.285568   95.496368   38.272968
H    2.087026   26.143625   94.281006
H    9.652565   54.606407   19.695599
H   82.160141   34.072739   15.730334
H   76.241913   43.252125   71.010002
H   52.306530   25.424088   92.879204
H   32.801334   33.683781   69.678139
H    9.319831   34.389137   57.798679
H   88.273262   19.809284   53.638355
H   98.248978   19.313589    9.884666
H   31.220663   43.123569   57.169258
H   25.966225   16.211742   16.033066
H   80.131546   65.894241   91.506927
H    6.858974   67.339920   90.848145
H   41.711460   66.329620   66.972168
H   93.627899   14.998722   40.183601
H   80.009125   27.517841    4.686113
H   69.844116   39.047729   87.542007
H    3.516542   46.038795   92.296402
H   12.923010   21.953262   58.938324
H   29.128731   97.126839   99.246346
H   53.444004   63.673721   50.726967
H   68.853058   64.525734    8.199014
H   40.144135   61.657532    0.959935
H   12.311143   33.704750   92.680748
H   89.285378   27.898766   65.433846
H   95.402031   32.727650   97.410240
H   86.228455   55.979805   84.654854
H   81.693359   70.776588   33.658760
H   19.857115   46.370148   99.409142
H   40.123528   52.105534   48.609138
H   59.030514   87.817177   56.817390
