100
TIME:    9.259, STEP:  9259
H   91.173981   72.927223   90.669144
H   44.764755    6.594679   61.915936
H   38.924587   40.033028   14.653730
H   83.030701   51.180107   32.644875
H   12.230612   14.906689   14.656628
H   84.437866   91.177132   95.695465
H   67.704323   86.549873   14.519039
H   92.147156   89.623306   58.063980
H   26.023979   96.076752   17.265768
H   21.862665   49.330524   70.248024
H   39.005402   38.796890   47.874092
H    2.449089   87.796562   33.862785
H   53.333984    1.554203    4.973952
H   96.631683   76.537056   61.855274
H   93.065804   42.973305    5.636443
H   29.239498    1.902852   64.462952
H   79.553261   94.382301   16.271650
H   99.064621   44.295906   78.563065
H   89.479172   66.781662   51.160595
H   43.061001    9.188730   46.728355
H   14.834488   34.454735    5.939013
H   50.049694   56.375443   30.788879
H   62.121208   19.325323   67.439545
H   58.764080   47.592743   19.420015
H   98.430283   51.876213    4.917430
H    3.948826   53.148178   19.568510
H   63.666145   57.592953   83.679550
H   51.293602   88.618530   72.827324
H   12.499156   89.141136   19.493984
H   56.023964   61.679214   19.452454
H   80.456230   52.327656   76.836487
H   50.376179   96.697159   42.112053
H   22.548286   91.050278   31.920797
H   69.316833   25.190491   81.684868
H   50.524864   58.633766   88.377640
H   77.506653   10.636937   90.317970
H   67.856750   65.450447   38.038227
H   81.299812   89.508873   75.822502
H   54.248196   79.679832   47.046295
H   91.099182   45.387024   66.514603
H    2.464921   73.879684   60.482510
H   19.915939   77.912338   52.648266
H   90.970123   19.030678   70.259056
H   88.129189   68.061378   86.029854
H   53.505577   66.591316   48.430698
H   58.609627   39.512066   20.777040
H   14.080169   28.374830   14.347208
H   56.752743   90.734695   41.471607
H   35.679482   65.618813   75.129974
H   20.130117   71.665184   36.143406
H   42.865826   75.746651   51.033463
H   55.116634    4.572150   66.240334
H    0.922719   75.695557   65.125839
H   62.270256   56.138596   40.389656
H    3.579113   70.020126   79.091995
H    5.127832    2.794154   77.428574
H   83.232147   22.382195   36.595482
H   36.611267    2.488480   75.064232
H   20.516453   29.994986    0.671518
H   48.019573   39.466053    0.262610
H   43.767178   47.984074   92.493813
H   70.297905   41.760605   76.415718
H    2.653662   75.465355   98.553040
H   78.839417   92.200699   75.759186
H   99.827667   21.342175   57.819111
H   32.553749   81.981346   93.648705
H   44.701889   68.467560   14.086487
H   40.783386   47.069893    8.836349
H   18.368563   84.493652   79.524872
H   18.070465   13.700903   82.205429
H   28.010487   65.417412   51.087563
H   10.811425   44.165428   34.726955
H    3.287753   60.320782   24.348240
H   26.383198   63.416431   53.015022
H    8.486688   41.948620    3.325316
H   44.547409    0.987361   72.915207
H    7.697338   24.410206   54.954659
H   66.976692   45.304207   25.789665
H    5.517300   26.322117   20.987459
H   45.454948    4.637239   23.249992
H   92.075829   25.070963   33.381233
H   36.084038    4.521005   12.396322
H    3.525439   61.961460   11.722882
H   87.153358    4.471640   17.751202
H    1.495056   69.713058   50.197403
H   38.196018   49.153389   84.756180
H   85.542519   30.147438   65.048027
H    4.938848   64.161476   99.576920
H   47.835941   78.646156   52.464119
H   47.719250   28.335808   55.201904
H    2.939184   73.388336   28.995262
H   63.371136   91.845047    9.949517
H   78.973312    5.329695   35.017265
H   42.111473   74.905746   51.117702
H   96.506836   20.364521   28.846876
H   58.677032   30.103579   89.209366
H   27.666218   99.033974    4.694250
H   20.405298   44.595295   93.003197
H   67.635643   76.784798   69.500038
H   14.324305   41.033154    5.790543
