100
TIME:    7.639, STEP:  7639
H    0.728239   21.488117   92.152298
H   89.506577   18.809498   59.769886
H   11.078363   23.483940   33.669765
H   82.758789   17.923714   21.442688
H   26.746984   85.056877   58.580368
H    9.556170   92.932198   35.261681
H   52.609142   77.160049   87.832901
H   19.475960   49.471851    6.805551
H   65.846672   51.834717   19.238655
H   66.111519   26.069719    6.816035
H   89.693863   73.614380    3.922724
H   64.284210    6.594226   49.176414
H   56.636070   99.608002   65.963081
H   76.843758   81.530342   38.571705
H   73.389290   87.679703   83.542267
H   94.374954   43.594177   98.936798
H    9.824171   87.231430   68.796661
H   64.424286   23.125076   34.720352
H   64.240829   98.817017   65.812363
H   86.709244   43.589649   36.431221
H   10.967621   95.730164   49.906376
H   94.738708   54.224869   68.746872
H   83.750542   32.494728   13.789041
H    9.284319   28.212862   39.735237
H   56.369576   80.349426   92.955666
H   11.588818    0.905622   72.019310
H    3.359019   24.932215   51.539753
H   87.985130   13.002387   19.276598
H   77.273415   42.161579   96.073174
H   93.906952    1.773951   90.667534
H   16.697630    7.060018    5.005674
H   48.088345   41.453083   92.083595
H    8.437332    9.577044   85.978401
H    0.867129   73.653969   49.931931
H   90.841942   81.290550   89.814423
H   36.682560   83.747849   95.410133
H   12.478841   24.779154   10.388593
H   48.257568   19.153660   61.503098
H   22.626888   14.976301    4.036799
H   43.684868   97.045303   39.055138
H   13.180189   18.296278   22.316008
H   56.440651   71.559494   69.943291
H   77.028473    9.311964   53.245647
H   91.568146   40.862755   27.636604
H   94.029289   30.496487    9.799698
H   79.518913    8.617694   14.195543
H    1.415211   40.273445   98.790291
H   56.653866   74.049210   41.235561
H   88.326485   99.789009   39.751328
H   86.122314   47.003902   49.413971
H   42.977062   32.147797   33.952469
H   76.383820   54.896893   72.583984
H   67.329033   66.302246   59.209358
H   99.793488   82.567139   68.904373
H   32.566849   28.050068   65.323380
H    3.110124    4.498237   32.577209
H   80.530960   69.126274   82.519859
H   57.239914   55.478203   16.791677
H   92.745110   61.544086   25.039989
H   54.922539   14.946546   46.339256
H   41.574963   23.323116   18.799942
H   27.794899   56.839340   49.714584
H   92.672112   86.011139    9.641296
H   67.597404   83.375931   19.739407
H   35.527458   50.730633    6.955520
H   32.071442   62.516014   97.861145
H   74.677094   12.463177   35.873821
H   52.687813   54.420158   31.390976
H   37.629173    0.896517   81.128265
H   85.168877   32.331547   85.641403
H   79.459389   75.644516   70.516884
H   44.214123   97.954491   15.982181
H    8.913687   40.456066   65.888489
H   62.040699   65.945862   49.269806
H   30.448839   39.563213   80.495865
H    6.245667   97.160667   81.921242
H   60.567097   64.626778   26.219786
H   90.874435   51.226147   36.313274
H   27.831213   31.080570    2.907574
H   24.901142   92.886497   62.814522
H   60.361046    8.311318   36.555496
H   14.521342   94.010681   47.925106
H    1.057978   34.869175   57.443687
H   75.699638   65.844971   65.711601
H   80.374146   71.054588    7.237626
H   75.481186   89.647293   72.258514
H   77.346321   47.934944   87.800285
H   78.885155   93.793457   16.373390
H   14.214509   68.844978   65.713631
H   90.948395   94.985489   97.293747
H   36.642078   85.915459   94.783493
H   43.507542   70.005219   79.078865
H   75.128159   56.728519    9.740176
H   85.545815   76.622154   41.884777
H   24.518726   65.475540   91.623169
H   24.871704   94.076782   72.884575
H   56.254326    6.066312   97.862495
H   23.532282   64.435341   25.528860
H   44.808617   69.789253    5.190205
H   13.699707   82.604080   61.852108
