100
TIME:    4.511, STEP:  4511
H   12.262009    8.339668   95.016068
H   75.892738   49.309196   62.540169
H   57.294678   98.443947   70.393456
H   82.233765   46.797600   92.899422
H   54.766434   34.334045   43.392242
H   58.072407   96.320992   25.485346
H   16.549217   65.943268   43.219082
H   65.330589   78.860413   94.008446
H   42.738945   52.579163   16.135229
H   51.566261   81.154640   84.335663
H   80.652802   47.752323    5.227497
H   83.668434   49.803688   71.831230
H   56.210861   88.800652   76.786377
H   31.722229   91.171700    0.528150
H   35.372124   67.086700   33.932308
H   20.146839   17.180656   58.588806
H   61.359352   80.337952   84.042473
H   97.533592   75.326881   43.151806
H   15.528728   67.597183    1.020601
H   70.981407   10.019949   23.462442
H   96.587593    7.132428   34.807877
H   94.854309   50.072403   35.124939
H   25.515678   57.934547    3.284341
H   99.920685   90.784027   72.047668
H   68.244904   28.414665   69.854591
H   25.982637   93.298355   66.223442
H   73.091011   54.961613   89.472755
H   51.916195   66.997940   15.880273
H    9.258296   58.365108   43.934273
H   73.965179   79.192284   41.999794
H   93.590874   26.565910   52.482979
H   50.584454   27.878090   81.658195
H   88.106056   38.435646    4.183461
H   68.701950   60.316498   81.710304
H   68.639923   17.923271   99.417969
H   64.771149   38.749851    5.245722
H   12.462946   39.333969   63.914478
H   77.543266   76.400017   40.769840
H   54.663441   83.131035    7.163117
H   38.307724   89.878456   92.950317
H   26.956459   10.968328   48.622906
H   26.198166   14.313527   14.732098
H   50.096722   90.551071   27.308447
H   91.301544   88.368835   21.796762
H   65.358772   53.908783   42.129414
H   19.889606   48.957233    1.485543
H   76.976852   70.161278   68.768440
H   56.480328   41.831802   47.693031
H   96.893234   58.847675   64.530762
H   20.486805   99.391960   68.157936
H   43.200459   34.135948    0.979899
H   24.358259   45.152454   77.923615
H    2.443040   48.165039   40.877430
H   72.225761   33.603821   30.873535
H   81.622223   53.921780   38.715374
H   99.210495    7.788589   39.061722
H   82.229370   59.383736   85.021019
H   90.157364   50.879524   97.361313
H   46.049080   29.370323   65.172386
H   61.337971   74.519150   35.307014
H   44.258331   68.788109   62.681595
H   38.810417   85.954330   91.245193
H   80.312706   99.460129   24.137657
H   52.802567   66.336502    4.663921
H   11.370969    0.557467   15.658851
H   24.227089   18.017494   12.908916
H   25.642809    4.320657   84.852890
H   68.760109   75.525955   81.854485
H   81.730087   25.654633   77.311127
H   21.779562   75.033691   92.234253
H   78.787544   88.471207    8.034298
H    2.015098    1.813494   86.896263
H   12.865610   95.174934   46.087677
H   30.904613   63.916012   35.125175
H   79.664070   35.070530   43.362759
H   32.300766   96.685143   92.396683
H   76.525040   35.562725   70.828117
H   43.915310   55.758244   63.567223
H   77.830986   40.268497   68.015785
H   78.297180   63.276699   32.294456
H   99.145584   75.950027   49.600521
H   79.791252   73.687820    9.570265
H    3.204267   82.559143   59.549648
H   60.498390   98.174751   51.406128
H   32.681671   66.720451   10.461505
H   47.472668   74.752434   55.040771
H   68.434212   75.366470   38.645493
H   28.566580   44.132561   48.830627
H   49.300156   43.006538   91.296638
H   67.506485   23.680466   85.474442
H    8.631431   17.013256   28.725870
H   12.065759   34.750755   19.481771
H   74.617393   62.870979   67.847092
H   83.233170   86.858429   30.972570
H   78.597893   45.662216   19.744591
H   66.511688   17.597164   34.450081
H    4.540717   26.557491   77.757080
H   23.424101   54.646149   83.850853
H   93.819611   56.295444   67.194374
H   19.407099   62.870861   63.182247
