100
TIME:    7.989, STEP:  7989
H   77.058830   89.391899   91.831863
H   79.840134   37.776554   81.837662
H   17.094522   48.664307   29.560986
H   82.817535    3.502823    2.257609
H   23.610731   13.110829   49.090164
H    4.128142   92.553017   69.924232
H   34.266933    0.792178   15.203373
H   91.966644   79.751640   74.670876
H   57.243004   18.183197   97.207520
H   56.551888   31.095201   20.521259
H   57.137711   87.697479   70.207840
H   50.924812   24.137661   24.263042
H   34.317802   78.421936   31.182398
H   59.513588   80.451546   65.207710
H   77.640388   56.415970   66.708771
H   80.302536   12.981928   69.884064
H   81.679115   10.381823    0.658540
H   71.906433    6.094330   22.588196
H   69.693558   13.500539   84.253372
H   77.277786   36.158237   60.260872
H   90.198143   60.888004   40.408161
H   28.293550   54.689499   38.941116
H   79.077538   29.649305    3.774793
H   76.765152   32.399872   13.740863
H   43.851265   52.593353   95.540504
H    9.938580   90.587753   39.081955
H   73.179260   10.382892   58.485172
H   58.452248   29.339209   30.845621
H   84.883736   73.916641   79.528069
H    7.327408   93.111404   18.491127
H   30.472311   38.444794   77.314827
H   70.187645   31.783970   59.682320
H   33.091030   83.969383   17.509169
H   15.655858   41.578468   35.186600
H   82.131462   54.790611   11.108435
H   67.107819   11.161592   94.309975
H   46.047810   11.960436   37.967190
H   33.792618   12.747978   86.202995
H    7.852550    7.351294   70.118935
H   10.719299   64.280869   66.593567
H   89.260376   30.304564   30.561857
H   26.944649   72.932022   87.812859
H   80.040558   11.411478   78.526802
H   69.217834   46.737389   61.856518
H   63.668144   16.688427   39.750641
H   75.000786   15.292079   15.617472
H    4.151255   59.307259    2.150895
H   56.675228   77.654099   62.891598
H   98.559029   70.800362   25.788986
H   93.470947   52.331127   24.941166
H   42.953030   98.356712   37.642807
H   93.393555   22.418573   49.608826
H   74.586876   68.331665   38.883125
H   91.686493   76.858063   84.349319
H    4.698453   58.723495   68.298080
H    3.546049    4.130071   20.662384
H    2.720794   59.027245   15.807971
H   31.177946   22.424990    7.776059
H   20.349636   76.332588   98.170303
H   31.827217   41.849697   36.384422
H   63.652905    7.046743   91.511055
H   15.372719   53.581589   33.877106
H   16.433350   62.128082   85.640747
H   91.629997   85.282516   10.236257
H   49.420967   22.775827   39.550079
H   10.571613   45.116417   18.556385
H   46.596344   24.563393   52.771404
H   28.511024   74.436638   48.123001
H   55.074165   75.747749   59.177910
H   92.277184   49.910053   84.899063
H   68.345650   51.830887   66.319191
H   15.392947   86.333397   41.636471
H   86.093079   23.143904   56.914082
H   54.336918   43.795589   28.473829
H   47.308914   40.078579    7.033037
H   14.520293   19.592369   58.369942
H   92.354210   34.332413   32.426964
H    7.317329   28.341778   55.643490
H   44.613976   30.052509    6.813538
H    7.737549   73.820641   32.661629
H   67.213005   11.932229   57.474533
H   40.784477   96.280426   18.644787
H   23.196241   40.722446   90.774750
H   99.780296   95.794922   33.745441
H   63.332367   49.160038   73.309090
H   67.427597    2.502322   96.563477
H    0.722028   22.487099    4.489638
H   84.514122   65.787476   12.744469
H   21.479027   49.357216   62.851082
H   60.004749   80.587296    9.805351
H   50.965504    4.815221    2.174930
H   69.403999   96.328918   85.749245
H   97.563919   67.229942   36.806213
H   19.372183   97.856285   65.484779
H   18.466518   34.123810   99.666077
H   53.780243   80.255371   54.806725
H   28.472818   26.151215   77.733864
H   22.856699   81.754829   18.501997
H   28.135338   71.300636   75.875328
H   35.438595   73.621231   28.134380
