100
TIME:    8.082, STEP:  8082
H   70.769524   80.863304   91.746719
H   77.271622   42.816372   87.701248
H   18.693102   55.355209   28.469368
H   82.833145   99.671013   97.160103
H   22.777384   20.565189   46.568481
H    2.685838   92.452263   79.133980
H   29.392956    7.072238   22.476093
H   84.657028   87.797752   66.132347
H   54.956886    9.241433   91.353867
H   54.011757   32.430546   24.162941
H   48.487076   91.439560   61.249489
H   47.375015   28.799297   17.643448
H   28.387520   72.792496   21.940367
H   54.908714   80.164894   72.284599
H   78.769966   48.108749   62.236153
H   76.563293    4.847656   62.164337
H   74.200630   16.532932    9.124700
H   73.894547    1.569015   19.364429
H   71.142426   17.402264   89.153412
H   74.771713   34.183605   66.592751
H   84.679390   51.629299   37.884350
H   37.209553   54.812958   31.021301
H   77.835854   28.893297    1.113864
H   68.124451   33.512421    6.833745
H   40.524971   45.217751   96.227333
H    9.500088   87.846115   30.329926
H   65.160110    6.516854   60.330669
H   50.605515   33.680134   33.919899
H   86.905907   82.354416   75.131798
H   10.893347   90.809677   25.884113
H   34.132648   46.783943   69.956963
H   76.059746   29.214748   51.072838
H   39.642155   77.164955   25.887342
H   19.585594   33.055550   31.268621
H   79.816963   47.749199   16.766813
H   75.192245   18.446020   94.017647
H   54.967358    8.554319   45.295254
H   29.948883   11.045984   92.766182
H    3.926790    5.325220   61.106438
H    1.959762   55.574203   73.910278
H   82.904373   33.495338   32.752895
H   19.107140   73.296722   92.561058
H   80.840912   11.969349   85.244667
H   63.279606   48.298691   70.949738
H   55.601456   13.019283   47.708771
H   73.800255   17.065559   15.995298
H    4.878261   64.364815    3.044065
H   56.680904   78.611969   68.645912
H    1.277665   63.097748   22.079189
H   95.423584   53.746647   18.438644
H   42.946644   89.378273   38.623383
H   97.913284   13.788870   43.503998
H   76.515388   68.870911   33.482155
H   89.532349   75.341080   88.453262
H   97.293587   66.873657   69.088501
H    3.661880    4.032244   17.496445
H    8.616477   56.343788   24.653023
H   24.253252   13.642027    5.380496
H   27.684441   80.261986   91.030975
H   25.690460   48.998249   33.739281
H   69.519333    2.721958   84.259621
H   12.071968   52.715958   29.669060
H   22.747135   55.782013   79.263458
H   98.015800   85.789124    7.711193
H   53.112671   15.348074   48.210648
H    4.858803   40.493095   24.055271
H   39.134888   27.778645   57.261333
H   22.086906   79.755302   52.568939
H   59.709549   69.065361   53.344833
H   94.165962   54.580914   84.701813
H   65.392570   45.502914   65.203804
H    7.734773   83.245506   48.452961
H   80.029404   18.543642   54.529339
H   52.289913   37.910007   22.948336
H   51.788910   40.215519   14.084206
H   16.719019   25.552807   52.112564
H    0.800522   26.282753   34.076630
H   11.686120   22.261074   60.779804
H   49.073395   29.779339    7.851408
H    3.176925   68.754570   24.649574
H   69.033669   12.894357   63.033020
H   47.762741   96.883530   10.864395
H   29.078630   42.277744   99.631149
H    6.178525    3.753139   25.251614
H   58.804123   43.342571   64.293755
H   65.287643    5.918372    3.021715
H    6.933351   15.725235    8.924294
H   86.009819   58.345345   11.780212
H   23.409313   44.179039   62.090462
H   51.781963   76.761490   13.129694
H   54.771442    9.836768    4.139008
H   76.285057    3.323390   87.521660
H    3.525364   70.019829   43.998047
H   28.360201    3.498470   71.755638
H   16.858360   25.793175    1.803038
H   61.461655   76.582825   50.003181
H   21.091185   31.487972   72.385399
H   22.677187   86.356865   16.634859
H   23.705009   71.702232   68.086067
H   41.214909   71.234360   19.175098
