200
TIME:    0.347, STEP:   347
H   12.759087   62.119884   17.169210
H   28.917980   34.440243   94.240952
H   15.894993   73.821526   50.618523
H   21.449324   78.224403   41.701672
H   14.074097   86.441147   52.120098
H   86.137695   49.910847   62.382221
H    4.909461   55.228210   51.722431
H    5.286437   93.506897   21.274284
H   91.773880   85.902107   45.109154
H    7.094598   73.400078   91.851952
H   15.923251   96.879951   96.342972
H   31.220261   44.878826   17.840622
H   13.800357   90.558983   56.906273
H   99.346069   53.658375   47.421841
H   14.455864   72.768280   42.715321
H   26.181541   21.557693   52.014790
H   89.240997   12.729837   10.237032
H   34.021305   88.310829   41.615425
H   68.585503   25.828154   44.058971
H   90.396667   78.235252   33.322872
H   59.369186   82.099602   20.938320
H   87.646935   52.904259   66.451332
H   91.801056   61.763481   46.568802
H   10.874610   89.034714   91.250565
H    7.897231   17.007410   41.592304
H   18.572519   67.084816    3.422590
H    0.967767   60.943745   53.384003
H   96.965851   74.543411    1.012815
H   15.575227   53.277412   37.711819
H   88.214211   23.630737   94.924591
H   13.221795   55.919559   16.325632
H   29.980293   66.014145   96.237473
H   24.537933   11.287938   74.486122
H   92.885246   63.694656   40.160545
H   42.853626   85.379684   33.405193
H   29.566074   47.482304   80.703445
H   89.335556   72.119560   86.758217
H   27.622301   47.523132   10.356516
H   49.110161   42.569099   46.810055
H   89.056602   39.248478   59.516693
H   80.536148    0.225493    5.075842
H   18.665148   40.863163   36.658413
H   74.775284   85.323914   54.301434
H   37.042892   68.430748   22.575157
H   32.432827   79.559715   48.225227
H   39.554043   11.053842   43.851578
H   81.990524   20.970020   98.525185
H   87.510864   65.548973   43.801041
H   91.218422   24.691662   61.243477
H   58.288330   18.284372    1.185535
H   75.662872   69.141800   23.628227
H   17.047819   37.539654   65.842186
H   55.062138   91.360123    9.328055
H   20.814108   84.441711   83.287689
H   72.669815   74.005287   87.312866
H    3.933990   69.714081   82.151978
H    5.125120   17.150368   48.506809
H   68.577682   61.066799    3.372222
H   25.923355   76.544449    9.714401
H   40.628540   95.388344   65.016228
H   50.072979   13.288807   39.110310
H   91.859184   16.678358   49.886200
H   74.395134   27.423050   81.275040
H   26.718546   65.304993    6.056488
H   73.068413   77.674210   22.305008
H   34.542461   20.718159   34.786606
H   82.178322   20.904997   88.045784
H   96.742226   91.693199   89.389969
H   20.328491    7.299199   60.625488
H   44.621033   43.494926   50.976879
H   58.418224   78.442787   76.143448
H   29.133287   21.009319   44.015831
H   80.889786   27.512936   95.912819
H   11.351259    6.612771   63.687393
H   80.447922    2.603661   62.581581
H   56.018311   15.298985   62.178272
H   94.975327   33.933552   70.632072
H   22.592089    7.918350   44.308678
H   12.344048   34.460571   32.568607
H   66.663811   90.070198   89.187225
H   47.909428   28.293640   99.545273
H   31.341261   66.666122   84.549400
H   10.582254   14.840001   87.149033
H   21.184803   65.358452   97.338959
H   35.097927    0.455319   54.749882
H   27.681772   82.030563   25.555424
H   40.650837    3.007073    2.016623
H   74.441673   14.561971   15.477996
H   68.960739   72.316795   77.555717
H   22.908199   90.843185   53.688335
H   36.757412   35.816490   80.278557
H   83.310104   89.474258    0.702579
H   52.342667   15.655336   92.682411
H   55.229797   90.589478   72.042694
H   27.836187   55.478821   72.396210
H   64.840950   30.101597   24.030750
H   80.757057   10.578272    2.937449
H    3.953197   30.101400   49.606655
H   34.593361   68.706169   53.260441
H   69.064880   99.666199   27.276529
H   14.640133   83.384827   73.978279
H   94.551170   78.275383   65.274384
H   25.397406   33.259659   31.998182
H   27.017448   68.137039   94.411446
H   25.196899   26.066578   28.556595
H   91.659119   21.534191   38.881268
H   70.726990   31.425383   55.761261
H   64.120979   38.382633   14.604129
H   75.515808   38.739010    4.306583
H    7.803955   26.568518    6.060950
H   48.602329   95.136963    0.871133
H   90.290382   66.036072   91.729965
H   55.235630   81.516319   91.607971
H   62.861717   17.090559   72.194733
H   60.279564   86.424179   23.020941
H    9.671761    2.667047   83.761436
H   28.175655    9.949377   85.427475
H   40.228245   32.263130   31.839684
H   22.925903   61.730846   78.251373
H   73.606369   48.810421   53.334278
H   41.671333   22.470470   84.013626
H   13.672256   24.945278   51.335583
H   34.816048   17.309811   27.203304
H    2.500823   63.468182   13.179524
H   73.714668    6.302819   89.274277
H   51.642437   65.280075   23.465420
H   92.726982   49.689529   66.922424
H   73.088211   88.409172   35.906269
H   93.784485   48.610519   82.451843
H   72.931435   23.642191   68.324509
H   52.928238   81.365204    7.500416
H   77.592972   87.112625   11.850308
H   92.088356   87.800568   98.171089
H   95.673912   15.746387   51.024265
H    9.711987   99.435410   51.500038
H   59.508217    1.489526   82.105240
H   69.069862   86.837181   60.665314
H   92.131020   60.880058   81.507721
H   49.110031   45.829994   71.524780
H   43.505905    3.958078   92.484360
H   55.914921   59.922062   18.366318
H   52.312469   44.261921   48.741234
H   51.565830   58.730423   95.775185
H   52.810112   22.654398   79.897530
H   45.331440   66.218422   52.567402
H   49.860630   63.819447   24.721561
H   47.261925   96.309212   46.515755
H   39.730743   69.435745   68.211082
H   68.045746   60.324902   96.880760
H   12.872773   89.842987   85.992760
H   72.448708   63.127132   50.536423
H   38.291553    4.149073   44.799191
H   81.146477   27.837681   99.708244
H   12.738425    3.598771   73.308380
H   17.855492   56.704819   62.689175
H   66.678497   43.794216   57.352871
H   60.431286   64.092247   82.022751
H   47.567326   34.943123   12.230925
H    7.484645    1.331159   98.636856
H   62.480057   52.578003   82.347290
H   55.006992   80.062347   80.570923
H   38.580318   22.501799   34.617016
H   69.825172   29.904848   37.187561
H   15.202218   23.322998   66.620728
H   57.929672   25.719057   10.875896
H   13.757207   61.034729   61.716911
H   73.057343   95.836311   53.356010
H   23.725685   35.800838   52.437305
H   95.526871   27.822243   36.604275
H   31.355923    9.652246   89.198425
H   77.320862    6.906297   35.967094
H   42.466530   61.472881   57.786694
H   39.740337   72.856583   87.413345
H   69.908379   71.979324   76.722397
H   66.464691   94.231628   94.200287
H    4.210944   48.238823   23.389400
H   34.318535   56.263676   91.383987
H    2.678314    9.302902   66.248398
H   72.865181   18.892160   67.883385
H   81.210617   55.602882   87.894424
H   79.464302   89.023788   39.231487
H   21.385880   30.236660   73.522377
H   60.709045   90.054733    8.187778
H   53.810894   25.418449   81.126701
H   86.906670   83.693459   77.956009
H    1.500444   37.126648   84.489723
H   35.077789    2.691737    1.635972
H   85.280525   71.756905   29.270510
H    3.519735   61.650558   67.766296
H   51.559330   57.691257   67.054886
H   52.931816   27.484264   78.537361
H   46.775753   87.837021   23.261499
H    6.477209   20.069593   60.257290
H   33.234135   67.801430   35.469658
H   81.222687   49.476044   21.466276
H   75.589371   10.646003   28.100420
H   10.172521   88.477028    7.078290
H   25.799828   95.279602   43.949093
H   10.486441   11.911289   73.231651
H    6.891741   31.367723   96.262230
