200
TIME:    0.043, STEP:    43
H    3.417743   63.128796   11.970999
H   26.208416   30.001932   81.899765
H   22.266783   60.515495   35.644890
H   11.202053   74.671181   49.651196
H   17.301859   78.736313   56.490887
H   96.027344   58.161884   71.381035
H    0.505098   55.443909   45.838276
H   98.474091   80.379456   32.064995
H   79.428055   90.459602   52.525230
H   17.796001   77.658379    3.842678
H    5.327075   90.385811   86.736282
H   29.963181   36.764629    3.355579
H    6.339053   80.469872   69.365746
H   13.715462   52.375782   32.772915
H   29.133171   70.428070   43.463306
H   35.042564   34.083267   58.572712
H   74.939972   98.492012   24.996706
H   41.240238   73.696693   47.027596
H   58.470882   36.833729   39.583813
H   89.429504   82.410057   45.107418
H   55.720871   66.924187   34.865932
H   94.414757   41.284386   78.166298
H    0.904516   63.973808   53.863113
H    4.467813   86.316078   92.214172
H   94.683884    4.780765   52.439838
H   18.824167   53.594131   13.462996
H   95.081169   54.843891   41.161102
H   89.989288   62.002575    0.212916
H    2.771392   62.517647   39.491909
H    1.951755   15.486969    5.440241
H   13.618691   43.218876   15.953959
H   35.508430   58.889145   88.752975
H   31.883270    4.746541   70.772865
H    2.946865   63.362991   34.846947
H   57.442249   97.941208   35.717571
H   39.496311   54.413639   77.217484
H   80.610214   78.680962   84.475990
H   42.659546   39.659424   24.024942
H   60.361259   53.454903   40.052670
H   91.972008   40.498600   71.391693
H   80.447128   14.429695   94.985359
H    3.533840   47.237858   45.672512
H   80.248917   92.307434   43.013226
H   37.720139   53.666668   11.702691
H   22.046238   70.284691   37.254768
H   43.832058   18.965494   40.545364
H   76.261765   35.863636   91.859413
H   94.911865   65.553612   54.729752
H   79.461708   36.228039   61.024300
H   69.166626   16.912485   14.047048
H   82.894562   72.989578   35.676018
H   28.668852   32.307232   59.305462
H   46.864445    0.059945    5.350877
H   25.338552   78.026428   78.785858
H   85.537491   80.766151   97.144531
H    7.831055   77.203217   72.197388
H    5.992696   15.999978   51.767796
H   65.256393   53.999783    8.859069
H   32.338028   70.671890    2.361817
H   47.659607   97.095375   70.635979
H   51.057537   19.219929   47.992207
H   86.397148   15.958220   47.556427
H   66.020012   21.125473   91.531143
H   19.352915   64.871277   99.269203
H   68.181572   73.142227    9.873805
H   46.467327    8.907695   29.322250
H   93.533791   27.317381   81.765022
H   98.444618   91.002037   83.371292
H    9.515342    3.191075   64.473267
H   46.370972   38.196404   50.993114
H   58.551586   73.184853   68.011856
H   37.676758   29.000011   46.143822
H   71.241348   22.257320    6.092037
H    1.447386   13.294808   54.837967
H   76.746262   97.682335   76.875648
H   48.334351   26.031693   64.164688
H   96.260239   22.616354   74.932121
H   33.851791    2.382654   54.703941
H   10.032829   20.916336   39.301640
H   71.244499   91.765633    3.604306
H   35.006962   33.431389    4.057785
H   17.974348   72.132797   93.947350
H   11.768305   11.505376   96.043686
H   31.098225   55.417778   87.430756
H   45.923428   97.240707   63.365055
H   19.117044   92.667038   31.883732
H   27.025900    2.373605    1.319698
H   76.969749   25.876308    4.011829
H   59.661900   71.560692   76.449402
H   24.430843   77.217087   57.032818
H   49.500580   33.192162   81.630730
H   85.427658   86.807022   94.069290
H   37.901321   19.083895    1.340436
H   68.862106    1.511232   63.695450
H   20.133093   59.591003   59.734955
H   77.430305   23.304783   38.323982
H   76.633278   21.092981   89.844841
H   12.310345   25.377493   46.728359
H   41.481789   71.751457   52.183109
H   63.779118   94.726013   27.202311
H    1.076887   74.979553   59.662983
H   83.246727   73.676140   66.951263
H   19.095770   44.369278   27.749739
H   12.409691   67.575760   82.339302
H   25.599884   30.061634   18.700577
H   79.624084   36.418121   53.113873
H   56.326237   27.650663   57.176056
H   65.911507   26.710575   26.359138
H   67.790100   42.576351   89.606636
H   98.038651   30.807104    4.573096
H   44.602634   97.778687    0.657247
H   78.083717   58.390690   88.267197
H   60.515598   77.988609   98.220398
H   63.891502   23.644423   80.034088
H   70.424339   73.765244   33.680119
H   22.078037   11.560530   70.047203
H   40.674557    5.668674   81.883530
H   41.770603   17.299934   37.916344
H   11.380830   50.317394   93.276031
H   65.583786   42.743038   41.993885
H   38.498482   20.450329   93.975174
H   26.789261   32.146816   42.393383
H   27.486937   30.131100   18.185146
H    6.979774   74.408432   26.491995
H   82.809334   13.826262   99.328697
H   40.504986   56.961952   29.335079
H    0.283337   48.270096   78.662903
H   79.737747   86.024895   33.338764
H   90.043396   59.614609   89.379700
H   58.196693   25.083078   63.145432
H   40.656631   92.219696   95.882881
H   89.261551   84.097488    4.681308
H   93.081032   73.010162   95.909737
H   10.580492    7.951968   47.282017
H   94.694176    4.932145   65.469398
H   67.605019    1.879682   86.583878
H   68.566566   86.062523   45.531647
H   89.538002   70.371162   86.311066
H   41.163986   41.578651   71.596680
H   43.341232   18.538343    0.931504
H   40.864750   68.862572    8.546469
H   66.307343   35.025166   41.654503
H   61.338352   53.135025    6.028819
H   66.740044   33.658924   74.859932
H   31.042011   76.300575   42.626728
H   38.722019   58.581226   39.281193
H   40.071983   97.640511   48.692451
H   48.031647   80.751785   69.955223
H   59.918797   73.016647   99.902855
H    3.149971   86.472359   97.358780
H   83.164040   57.964291   52.831406
H   25.494911   12.560658   54.325863
H   67.024040   39.204746   10.380550
H    4.702217   96.620399   80.820709
H    5.800717   48.676437   57.188869
H   57.653961   43.040432   48.000149
H   57.249157   54.976082   78.423141
H   43.245243   39.820686    5.108765
H   21.398169    2.476621    9.910460
H   65.887680   64.981812   70.681030
H   52.020847   92.412811   88.653809
H   52.853512   24.077208   37.250622
H   56.739483   43.158787   37.313965
H    4.043603   14.392343   79.627563
H   60.840439   15.403810    7.888881
H    8.519567   70.706718   63.378716
H   78.292084    0.753168   50.133293
H   23.460121   21.969479   39.866505
H   91.396133   28.810860   37.322109
H   17.482815   11.946360   92.621765
H   83.128479    3.291032   35.992607
H   52.968483   72.763672   56.853161
H   33.866619   85.919083   95.967056
H   73.647148   79.266678   69.680893
H   80.594086   96.518494    8.493739
H   94.824821   46.596733   23.097744
H   37.441521   46.767155   78.667068
H   99.984032    9.012985   62.361187
H   80.639595   25.959177   71.438927
H   95.671677   52.341896   83.605972
H   85.014473   78.129868   46.299664
H   15.254170   29.865566   62.424358
H   74.704193   90.370163    2.171012
H   47.191383   24.855488   69.942863
H   82.975395   96.878883   79.208450
H   95.136223   34.561462   82.968239
H   24.492752    7.899063   94.900467
H   99.885384   58.880409   18.633455
H   12.323355   60.294907   64.291931
H   46.031193   59.344944   63.214069
H   38.409294   37.542065   80.708260
H   49.267879   79.575546   27.133631
H   99.724686   12.837323   53.293484
H   38.545414   55.668186   29.342880
H   91.655060   63.054596   22.460691
H   74.847183    9.900046   32.265404
H    8.151799   80.187721   96.817520
H   34.634930    1.321271   52.522518
H   14.540350   11.060673   86.827599
H   10.062512   41.666771    0.485823
