100
TIME:    8.749, STEP:  8749
H   25.662704   19.696367   91.136063
H   58.850143   78.960052   29.757030
H   30.158182    3.342493   20.640240
H   82.945099   72.191460   60.601646
H   16.800581   74.028183   28.483360
H   92.344360   91.729652   45.188950
H   94.435432   52.113258   74.636360
H   32.232147   45.501095    4.888972
H   38.560753   45.112045   49.369442
H   35.793831   42.007679   50.279457
H   86.444366   18.277103   97.001747
H   21.915718   62.232754   70.165733
H   85.854889   32.421890   55.655121
H   21.883142   78.109016   23.042637
H   86.871346   88.529030   30.161407
H   49.745285   46.509483    6.797164
H   20.564613   60.647793   69.844337
H   88.154282   69.112648   96.243729
H   81.533768   45.385609   24.293301
H   56.800091   20.019304   12.005152
H   45.098656   85.226654   19.781748
H    1.155495   55.698410   74.220123
H   68.930443   23.471174   82.030762
H    6.149279   41.491669   57.298168
H   16.670284   92.320343    1.152740
H    6.354437   68.182968   67.563095
H    7.642511   78.792252   73.562973
H   94.326813   64.813446   55.969696
H    1.409090   42.869473   43.601555
H   36.467842   74.301590   78.909180
H   60.385799    6.595942   17.186043
H   18.174335   10.787821   89.325340
H   86.624649   28.363495   85.975967
H   47.768524   71.929077    3.170678
H   63.217278   97.247963   57.350040
H   33.172703   70.691483   91.921059
H   18.942276   84.127205   97.852440
H    2.380886   98.839470   39.833443
H   75.774925   90.792503   96.469666
H   39.135468   93.131004   26.387327
H   37.318848   56.379700   48.467129
H   62.895828   75.912369   26.613239
H   86.581085   15.970423   33.422382
H   20.691387   59.499153   36.165081
H   97.745224   86.707741    4.786450
H   65.189995   29.785030   18.705088
H   10.092875    0.637871    9.449423
H   56.721615   85.481857    9.915855
H   20.773094    7.858755   95.472076
H    9.425404   63.898815   71.803490
H   42.900845   24.984241   45.656113
H   30.330889   51.897182   99.718422
H   90.346764   72.738403   94.744064
H   74.082733   64.461212   17.885384
H   44.186806   25.325129   74.757431
H    4.492628    3.330625   94.790176
H   50.899590   37.097923   88.090080
H   74.587341   50.652306   88.200218
H   80.292305    8.444730   39.825005
H   81.674797    0.264395   14.768211
H   11.593939   71.700928   32.255131
H   88.398796   46.507614   99.489296
H   68.031448   10.266677   33.525269
H   43.818256   89.422531   89.603333
H   79.586731   62.076962   10.324902
H   63.884010    7.334767   63.493519
H   85.619553   50.836491   89.463303
H   76.012421   17.902084   84.455399
H   92.950287   21.138985   11.509895
H    7.712632   88.084183   83.287125
H   44.208202    0.117285   57.204201
H   52.807755   61.099022   97.344589
H   36.540466   85.549400   37.425861
H   37.608707   95.696022   83.318062
H   83.919632   41.197659   64.656708
H   32.489227   68.302971    7.233215
H   61.378738   68.553101   45.908104
H   43.019375   78.650002   97.622314
H   81.059258   27.820148   15.295059
H   70.466240   32.420494   67.187065
H   82.091545   19.794779    2.898798
H   97.814590    1.210258   55.061935
H   71.268867   53.432407   63.154606
H   52.065720   60.830177   64.330284
H   26.327362    1.619029   99.636337
H   49.935139   30.418430   49.340378
H   51.480778   67.228584   40.729332
H   96.737022    4.970333    4.864336
H   37.252445    7.042336   56.635262
H   92.809464   49.319923   36.972610
H   82.067802   45.850468   18.224998
H   25.636301   53.487656    0.233413
H   46.281208   90.029015   95.578186
H   92.822525   43.964588   16.729986
H    5.324729   66.048477   17.129156
H   16.553162   50.243164   15.551947
H   68.147881   69.765938   34.025978
H   21.389719   19.361244    3.243666
H   91.930992   74.582497   12.216434
H   82.645172   54.118557   54.921886
