100
TIME:    2.220, STEP:  2220
H   67.192780   18.435898   97.113541
H   39.516945   25.109228   18.036825
H   17.914618   33.619186   97.276070
H   81.849228   41.186852   18.477020
H   75.286713   50.700306    5.512014
H   93.592537   98.803001   98.599388
H   36.620327   11.241909   64.059746
H   45.398674   80.659912    4.360296
H   99.056099   72.849411   60.347202
H   14.173853   48.259270   94.621422
H   93.756042   55.568989   25.908171
H   71.110870   34.967636   34.906502
H    2.048841   27.394463    4.479432
H   45.159935   98.233192   26.182957
H    7.503045   71.727936   44.059380
H   12.263004   17.559944   48.762466
H   45.582764   28.809151   75.478790
H   48.585037   86.741920   22.582260
H   79.840996   71.486496   80.320312
H   32.707764   58.667797   67.480568
H   32.538681   35.209522   96.989746
H   75.213913   47.031067   30.224747
H   56.103828   76.567101   68.833359
H   12.779503   63.307133   42.197952
H   50.183586   10.108284   52.941422
H   36.479694   61.457546   81.091103
H   70.646553   50.195415   44.019825
H   45.224495   60.061810   40.153240
H   59.442581   50.507576   52.231346
H   86.118446   35.895187   59.872128
H    3.430650   21.124838   33.743275
H    5.929388   91.176842   93.747566
H   26.731079    6.056893   97.792084
H   71.901390   70.273026   78.226273
H   25.589264   91.105042   59.909561
H   65.574905   58.877850   13.008302
H   92.726044   23.235270   83.392700
H   72.233086   18.321774   79.100288
H   51.367340   33.045288   29.177397
H   54.093647    4.353822   12.698755
H   83.528587   32.357334   94.646774
H   32.100250   11.491662    7.099170
H   30.362997   76.812622   61.825142
H   37.596687   49.978691   97.794113
H   64.085899   44.300091   46.082741
H   49.446499    5.259876   92.184425
H   59.073612   45.569244   46.766243
H   56.357975   18.240328    5.938928
H   29.922819   48.588360   55.919029
H   72.447227   64.538948   28.394962
H   43.375248   55.316978   76.824173
H   13.020796   57.740452   28.322987
H   54.931213   34.881042   73.936516
H   25.283504   70.988014   29.778177
H   64.027252   53.122677   19.243727
H   96.343948   10.198835   17.052765
H   36.989834   25.490089   67.127907
H   60.751068   67.235977   56.373856
H   65.362373   32.569836   41.052773
H   12.522394   98.423584    0.468485
H   99.739517   75.330635   41.306721
H   20.120296    7.280119   94.905579
H   24.813633   55.766090   81.257492
H   95.482483   53.870743   66.870674
H   20.436974   83.536560    2.305085
H   64.967140   31.910164   77.449074
H    9.453562   25.114508   74.243729
H   27.015343   44.501770   72.331436
H   67.548332   90.271294   20.997459
H   75.359680   59.804123   97.058441
H   51.537788   44.351143   35.521053
H   90.918152   77.847534   19.159300
H   62.243561    8.497219    4.823627
H   81.334770    8.892972   71.267357
H   69.205223   31.802496   69.688950
H   78.141624   49.854507   46.551319
H   68.517426   34.131874   30.311560
H   36.279964    5.559819   37.042583
H   67.968018   46.997890   42.446838
H   90.652290   88.048248   29.666115
H   54.325802   52.248577   12.673172
H    7.891701   58.725845    1.141994
H   58.262386   44.311401   41.343845
H    2.885291    2.129855   60.657379
H   44.234283   10.021126   32.548248
H    0.194702   90.598793   95.946663
H   15.423513   41.940842   29.401579
H   91.692780   27.555817   72.660774
H    1.752877   70.566185   10.037287
H   70.061417   17.937729    3.578527
H   14.874207   93.305496   80.344070
H   42.546391   62.468891   75.822258
H   27.723038   94.152206   90.660172
H   61.800159   47.892681   76.501076
H   18.208782   50.876198   67.099968
H   77.284470    8.066376   52.783112
H   86.389420   95.081917    9.515165
H   15.016219   35.139648   20.514900
H    2.957851   46.419842   59.090614
H   77.110825   21.680485   83.867828
