100
TIME:    6.637, STEP:  6637
H   68.489090   13.376049   93.069656
H   17.178051   64.514946   96.589088
H   93.851791   51.396080   45.434887
H   82.590607   59.206146   76.367065
H   35.724045    4.742194   85.749466
H   25.096958   94.017738   36.030422
H    5.125786    9.498890    9.475199
H   98.231178   62.785664   98.805870
H   90.477745   48.172943   82.311699
H   93.479378   11.681908   67.583138
H   82.897461   33.296482    0.440451
H    2.523258   56.369099   20.500015
H   20.546036   60.237690   65.535820
H   26.456108   84.618782   62.319920
H   61.219002   77.183281   31.729282
H   34.665176   31.232826   82.111816
H   90.398964   20.957249   77.580635
H   42.996471   71.882675   69.451210
H   48.637974   56.785400   13.025767
H   13.706284   64.865028   68.210442
H   70.427734   95.482452   77.102089
H   98.675995   52.894699   54.076416
H   97.128685   40.643929   42.458771
H    2.384582   16.226046   14.151783
H   92.207710   59.813713   85.555641
H   16.291132   30.453056   66.302513
H   89.762993   66.586807   31.656012
H   72.530289   66.232430   86.156815
H   55.486153   51.252392   43.437012
H   55.484928   26.574303   11.011253
H   77.264153   17.208508   84.280693
H   84.821564   69.135788   84.843742
H   37.858379   82.888100   95.710327
H   58.530998   65.481277   92.145706
H   15.779722   57.156013   28.851549
H   49.580517    5.266766   98.559731
H   16.374004   61.474243   31.434851
H   89.673393   37.493183   90.796593
H   64.924591   36.806450    1.138084
H   38.062298   90.849442   60.220867
H   81.659943   83.914513   98.710548
H   40.883835   67.630142   18.791039
H   68.405304    3.301300   80.871269
H   55.547642   24.044516   29.666643
H   80.944771   70.028152   24.056475
H   92.453667   89.507462   10.124765
H   93.586227   85.780228   89.173317
H   56.593868   63.728928   79.237885
H   59.033470   82.773537   79.722214
H   65.084229   31.752756   19.472563
H   43.045864   28.884321   23.390675
H   27.683289   47.875717   38.358589
H   46.544445   60.492310   17.401628
H   22.995071   98.911407   24.688332
H   12.346951   40.239944   56.800777
H    1.862135    5.552243   66.687653
H   17.009546   98.038353   87.221306
H   31.850504   50.104942   42.602280
H   13.723655   19.200352    1.960872
H   21.045769   37.930317   74.838524
H   78.367516   69.918961   96.923874
H   63.357826   66.165817   95.049789
H   24.645979   54.386269   78.351440
H   98.790085   77.917648   46.946728
H   95.756027   30.757702   13.643844
H   93.626190   12.328106   38.615082
H   55.069717   77.819458   87.496048
H   21.902946   97.113808   83.489578
H   87.689034   72.893845   43.972202
H   64.846153   81.964287   87.757507
H   11.277311   43.819977   82.534279
H   26.716417   31.256027   42.552094
H   74.246246   90.013733   91.574524
H   84.102486   29.364025    8.805925
H   82.166985   38.103687    4.527288
H   82.560844   32.941883   49.342941
H   69.564056   51.352177    8.449789
H   43.798656   16.742697   80.976707
H   79.780830   34.023762   91.729561
H   74.040421   47.471138   49.137657
H   40.748596   97.944473   76.667160
H   39.332047   87.512726   31.753380
H   37.680519   18.112097   62.018669
H    6.765100   80.101463   57.228863
H   29.162809   33.737083    4.369720
H   98.537460   52.843613    2.676524
H   10.425020   20.788826   40.021202
H   62.770226   73.975159   26.762474
H   93.418808   24.634485   73.908699
H   79.539108   36.212177   61.471443
H   95.636009   31.811138   73.623093
H   69.369690   94.645538   59.984131
H   10.897937   26.662098   32.253975
H   88.707375   15.831878   74.321732
H   41.843163   55.228394   68.597473
H   42.110596   33.643036   24.639465
H   35.788139   48.563431   55.489487
H   25.466379   14.858380   45.643173
H   92.541832   65.462379   89.118568
H   51.459766    8.319168   58.378040
