100
TIME:    2.844, STEP:  2844
H   24.993958   61.212029   96.542252
H   22.159279   58.943336   57.398640
H   28.640570   78.512985   89.954048
H   81.953964   15.477312   84.274109
H   69.697601    0.716657   88.592728
H   83.918709   98.126976   60.397541
H    3.917110   53.379105   12.857444
H   96.353500   34.643963   47.067844
H   83.716988   12.854475   21.066982
H   97.122856   57.218987   19.057100
H   35.713074   80.677139   65.800079
H   47.294296   66.245712   90.490410
H   62.354134   89.641296   42.458374
H   14.262786   96.309853   73.670387
H   15.094009   15.989850   14.063291
H   87.172882   62.982452   96.964211
H   95.409492   70.078094   32.288891
H   61.919876   56.396950    0.947067
H   89.562431   97.661057   13.196199
H   15.897583   45.418652    9.965326
H   95.509735   73.088715   80.051025
H   35.037399   47.859436   77.085419
H   47.772530   71.492149   50.980576
H   54.803101   70.791016   95.852882
H   27.865669   60.616905   57.545059
H   33.618488   42.866848   22.603613
H   16.837143   24.254843   56.402515
H   92.573692   89.188026   60.781536
H   73.010696    7.122154   22.734537
H   10.045392   20.451340    9.478680
H   27.983801   77.082062   84.370720
H   45.329018   73.933434   35.980721
H   70.686005   60.401619   54.006935
H   98.266380   13.087051   51.937454
H   10.076840   43.935608   97.909294
H   19.829174    7.895405   10.863587
H   52.575104    0.381372   32.561275
H   46.442627    6.900811   23.134983
H   25.026154   19.450808   68.707535
H   95.320633   45.937775   61.795353
H   40.884136   53.766392    9.349643
H   76.018639   39.498917   36.414139
H   35.737873   80.554565    6.899162
H   97.751068   60.438042   58.804443
H    9.960047   19.682293   99.479225
H   41.396084   17.161732   94.717140
H   63.953373   79.503815   52.760017
H   56.391300   24.664949   44.548515
H   48.161224   96.910149   31.025202
H   85.529747   74.031868   84.751495
H   43.327641   95.073303   83.403519
H   43.345234   99.836792   87.358360
H   67.874245   38.499207   37.694290
H   10.834652   60.808052   57.314117
H   14.348824    7.824653   24.537928
H   97.124710    9.543043   95.810333
H   76.548347    7.484399   26.475624
H   14.286269    8.306708   40.301590
H   14.577545   58.934826   93.147697
H   71.343155   46.387897   82.720467
H   39.102791   46.312054   92.655594
H   97.975487    1.470823   66.674377
H   67.140755   13.213438   38.448898
H   38.331734   57.265152   49.927998
H   45.206005   33.698215   60.418251
H   26.633644    0.889280   14.344364
H   59.389168   46.686192    4.370001
H   83.911140   80.188293    2.162246
H   98.645500   45.434624   81.862068
H   88.004211   91.187569   95.744476
H   31.723545    1.893537   28.033669
H   39.466324   57.138306   64.847382
H   21.557646   77.629875   88.826164
H   67.604790   69.406693   34.181175
H   99.293114   32.692226   16.992443
H   92.890404   89.846428    4.565053
H   25.171381   80.048233   41.347324
H   65.596619   64.759880   71.504562
H   97.894043   45.165005   49.411804
H   60.050240   54.064678   75.908096
H   66.536118   58.704144   49.967701
H   54.713394   62.801041   48.964211
H   97.739151   54.727905    0.776935
H   45.812611   55.526337    3.662036
H   13.849889   70.991608   72.058556
H   85.836243   13.518452   39.279293
H   57.099052   96.570946   59.156219
H    1.737536   77.596954   66.167122
H   14.703590   35.822289    4.932223
H   14.890413   92.264481   25.884434
H   40.410828   27.000015   93.521805
H   88.718277    9.391657   87.714592
H   67.760513   12.850100   38.935295
H   22.110897   85.742607   18.575359
H    7.418592   94.980835   81.439323
H   28.824356   83.425179   20.552887
H   36.858658   30.891720   73.628471
H   17.306646   40.452637   10.529896
H   73.231895   49.109661    6.822412
H   15.863432    5.653071   23.767687
