100
TIME:    7.585, STEP:  7585
H    4.379969   26.439999   92.201736
H   90.997971   15.883157   56.364811
H   10.150156   19.599106   34.303814
H   82.749725   20.148651   24.402611
H   27.230864   80.728539   60.044571
H   10.393638   92.990700   29.913754
H   55.439083   73.513962   83.610031
H   23.720253   44.800327   11.763715
H   67.174095   57.026581   22.637756
H   67.586433   25.294359    4.701561
H   94.716812   71.441559    9.124269
H   66.344971    3.887573   53.020256
H   60.079460    2.876429   71.329628
H   79.517555   81.696785   34.462132
H   72.733406   92.503250   86.139435
H   96.546127   48.317200    3.419333
H   14.166620   83.659500   63.880825
H   63.269634   25.752731   36.592010
H   63.399845   96.551910   62.967327
H   88.164383   44.736210   32.754646
H   14.172058    1.105857   51.371815
H   89.561676   54.153183   73.345474
H   84.471519   32.933907   15.334096
H   14.301706   27.566866   43.745934
H   58.300972   84.631622   92.556862
H   11.843426    2.497326   77.100761
H    8.015509   27.176928   50.468174
H   92.541710   10.481849   17.491663
H   76.099251   37.262226   98.625847
H   91.836304    3.110540   86.374626
H   14.572324    2.217786    9.277946
H   44.678738   42.944889   97.082649
H    4.633556   13.527796   81.113655
H   98.585503   78.602760   52.206924
H   92.185844   85.379112   86.529236
H   31.988377   79.518387   95.579872
H    7.299550   26.756899    6.133691
H   50.489304   20.142017   57.692627
H   24.906414   16.152731    9.269695
H   48.770851    2.100518   34.806313
H   16.870565   16.443571   21.043791
H   60.991463   71.347733   67.186272
H   76.563751    8.988039   49.345364
H   95.016479   39.956383   22.356781
H   98.713585   32.626873    5.178642
H   80.215996    7.587911   13.976160
H    0.993079   37.336800   98.272011
H   56.650570   73.493027   37.894344
H   86.747749    4.261176   41.905609
H   84.988525   46.181988   53.189835
H   42.980770   37.361084   33.383102
H   73.759460   59.907894   76.128723
H   66.209251   65.989136   62.345406
H    1.043930   83.447968   66.521439
H   36.866348   23.317776   64.864426
H    3.042867    4.555039   34.415497
H   77.107346   70.684410   77.384026
H   61.260910   60.577782   18.182753
H   88.485985   59.262089   29.185612
H   58.485817   10.795774   47.875145
H   38.168652   25.834385   23.010040
H   29.711464   57.341965   52.158081
H   89.006248   89.695953   13.344238
H   63.889507   83.081772   21.205669
H   33.383888   55.043728    1.926597
H   35.388763   65.200523   94.668243
H   79.009552   10.596359   33.266766
H   56.417946   51.331902   28.809464
H   34.937660    4.776596   84.514801
H   84.072166   29.619432   85.755936
H   81.174080   79.318619   71.164528
H   48.660702   99.747459   12.024116
H   12.434736   43.126980   67.272766
H   63.229282   69.363708   52.478363
H   27.847757   39.483700   76.401535
H    4.968970   93.699974   85.554970
H   55.662800   69.300362   25.262121
H   88.337418   54.756878   33.330898
H   25.241873   31.239185    2.304939
H   27.549191   95.828087   67.466682
H   59.303886    7.752664   33.327988
H   10.469344   93.660492   52.442547
H   97.642494   33.966099   52.300850
H   71.984337   61.224117   70.643913
H   83.003448   74.432884   12.472234
H   76.723740   87.663986   68.508606
H   73.739784   51.861183   85.225365
H   78.016685   98.114380   16.933281
H   13.093698   71.851662   66.155281
H   95.722504   97.206924   95.363174
H   34.432178   82.999413   93.643112
H   39.512089   65.943848   78.049721
H   71.666641   55.108173    5.564273
H   80.326759   73.346031   38.243633
H   25.452496   70.312271   90.382263
H   20.411530   96.209229   75.673729
H   60.540642    2.967447    0.968089
H   23.636515   61.763538   26.613005
H   47.381065   69.556068    9.713413
H   10.345615   83.990005   67.054031
