100
TIME:    2.763, STEP:  2763
H   30.471432   68.640160   96.616409
H   24.412437   54.551346   52.289173
H   27.248259   72.685425   90.904503
H   81.940369   18.814718   88.713684
H   70.423111   94.224152   90.789032
H   85.174446   98.214729   52.375530
H    8.162251   47.909355    6.523121
H    2.719948   27.636675   54.505245
H   85.708122   20.642334   26.165634
H   99.336464   56.055946   15.885005
H   43.247498   77.417908   73.602707
H   50.386055   62.185577   96.256172
H   67.506660   94.541885   50.508812
H   18.273415   96.559517   67.506645
H   14.108639   23.224863   17.956957
H   90.429642   70.066986    3.687971
H    1.923039   64.720200   24.915140
H   60.188911   60.335960    3.755482
H   88.300514   94.263397    8.929041
H   18.079674   47.138493    4.450514
H    0.316383   81.152130   82.249802
H   27.271851   47.751907   83.983322
H   48.853996   72.150917   53.298004
H   62.328873   69.819550    1.868470
H   30.762455   67.041107   56.947472
H   33.989895   45.280064   30.195818
H   23.821873   27.621912   54.795147
H   99.408562   85.407219   58.103825
H   71.249451   99.773293   26.563238
H    6.939574   22.456070    3.039573
H   24.795946   69.818314   90.779182
H   40.214607   76.171761   43.479301
H   64.980804   66.328056   46.709816
H   94.844002   20.510178   55.349945
H   12.090377   50.058563   92.976570
H   12.786355    1.532302   11.141988
H   44.806465    3.347953   26.178770
H   49.790230    8.383289   17.419277
H   28.445442   21.215452   76.557129
H    2.950088   53.521019   55.422115
H   46.419697   50.987331    7.441184
H   83.298454   35.863335   32.608612
H   35.040173   80.068832    1.048508
H    2.923437   59.080338   50.885017
H   16.986181   22.877872   92.547951
H   42.441090   15.616779   94.388374
H   63.319942   75.098846   51.981979
H   56.386974   23.830984   39.536690
H   45.793739    3.618639   34.256531
H   83.831535   72.799614   90.417145
H   43.333820    2.893333   82.549469
H   39.408695    7.353055   92.675468
H   66.194572   38.029541   42.398979
H   12.710224   62.129913   53.739716
H   20.797539    0.723990   23.850477
H   97.023361    9.628170   98.567764
H   71.412926    9.821757   18.771873
H   20.317719   15.956231   42.387894
H    8.189476   55.512447   99.365822
H   76.688690   40.161739   85.024300
H   33.993324   50.078648   98.971359
H    0.850242    2.224915   70.339005
H   61.646519   18.737349   44.005783
H   32.769287   56.824532   52.127392
H   41.990650   40.167858   52.874557
H   31.609627    4.915991    9.555166
H   65.887856   43.886120    0.459151
H   89.506340   75.555908   98.289978
H   94.608849   51.254768   86.941872
H   86.362854   87.113838   95.915039
H   34.295616    7.404860   29.005444
H   46.144844   59.826523   58.916710
H   26.839220   81.636864   90.902580
H   69.387047   74.532227   38.995247
H   95.387474   32.576664   10.851875
H   90.975899   84.655388   10.015230
H   17.817099   87.068497   39.914845
H   61.791088   70.055977   67.031616
H   94.009415   45.402927   48.507698
H   64.022621   58.476444   82.886337
H   64.951614   57.866161   45.126438
H   48.635551   62.272049   55.737282
H   92.614853   53.375763   93.062073
H   40.240276   48.595062   11.060242
H   17.794067   76.057816   79.910622
H   87.700073   10.543182   33.654430
H   51.689247    2.460317   55.293839
H    0.433905   84.082047   67.010048
H   13.022528   40.332314    5.594931
H   22.051910   95.596634   22.988884
H   37.095978   22.626255   91.811234
H   82.725098    3.300368   86.170876
H   62.563404   10.423035   32.668953
H   14.281731   80.829659   13.113954
H    8.819214    2.236100   79.577965
H   22.134094   86.623848   24.736618
H   43.288132   26.243267   78.286812
H   17.009398   39.762970   11.825956
H   77.090569   48.760502   13.607239
H   10.832932    7.733275   31.569593
