100
TIME:    9.918, STEP:  9918
H   46.607819   12.494155   90.065811
H   26.564976   42.306629    3.465923
H   50.252155   87.444908    6.917248
H   83.141312   24.029406   96.522598
H    6.325495   67.728424   96.788979
H   74.221436   90.463188   60.959412
H   33.168026   31.049120   66.053696
H   40.351059   46.634403   97.555290
H    9.824501   32.716782   75.785515
H    3.860734   58.792789   96.050545
H   77.706757   65.313354   84.394646
H   77.299690   20.828014   86.955299
H   11.311733   61.664322   39.484322
H   64.001450   74.505836   12.003658
H    1.070174   84.108185   73.942162
H    2.740741   44.264450    9.759925
H   26.560555   37.969070   76.263016
H   13.157866   12.228931   55.718697
H   99.745880   94.424347   85.891251
H   25.307941   95.193085   91.596184
H   75.728043   68.850655   88.050476
H   13.228668   57.250275   74.668976
H   53.322235   13.966301   48.600189
H   97.532364   55.476288   70.478378
H   74.860092   99.612564    9.781799
H    0.840093   33.720871   57.554600
H    6.838364   30.196795   96.751755
H   95.690010   19.378422   94.607628
H   26.828609   48.930363   88.343338
H   81.293541   45.369125   71.841225
H    6.390398   11.422422   24.698502
H   91.986008   78.486572   81.105156
H   68.969154   42.833954   91.288719
H   97.160629   64.797173   53.921516
H   34.124275    8.738167   28.472242
H   34.791676   62.256023   88.246529
H   31.064575   41.317146   89.965042
H   54.061184   77.452278   22.327080
H   26.429539   65.320518   83.184792
H   29.029034   83.692902   18.361868
H   57.426254   96.494598   76.008263
H   64.378685   80.501846   86.281487
H   96.641449   22.985020   17.860531
H   46.054653   79.122475   50.461849
H   96.316498   40.550144    4.808046
H   50.107666   52.081493   23.454329
H   19.233166   64.217529   20.674986
H   56.792965   97.522186   82.246826
H   54.941086   11.043650   48.827118
H   33.961517   81.700615   90.066383
H   46.507160   12.401352   52.316086
H   87.143539   43.422485   22.980867
H   14.591913   79.516663   26.850010
H   47.010971   45.384193   69.470284
H   51.109169   27.770655   84.692932
H    5.948616    2.100950   54.994659
H   25.010368    3.366483   99.271675
H   87.541458   40.254646   58.090477
H   72.492989   57.843628   50.080669
H    4.534050   90.118256   81.519081
H   85.339233   17.338606   41.117809
H   46.908714   35.626724   46.598099
H   47.420467   30.539949   53.383621
H   24.091022   95.790527   57.868652
H   25.984665   68.709511   19.188623
H   92.071747   49.220390   32.614422
H   91.828346   91.253418   45.903637
H   95.261513   84.758064   40.340363
H   51.214989   37.142105   38.193455
H   31.454391   46.798809   80.807709
H    7.081882   20.574879   43.183907
H   56.543091   22.284569   83.030731
H   60.320374   27.725412    7.449902
H   11.878078   21.710449   13.859907
H   40.230171   42.918980   53.290989
H   60.128471   43.223843   28.574093
H   67.548775   67.373093   66.643089
H   97.937706    2.216138   62.185699
H   37.117210   24.386425   28.343088
H   13.137794   68.738716   66.476692
H    4.976623   31.888620   72.768791
H   85.534355    8.799127   57.263046
H   45.209038   72.982338   74.483704
H   32.491962   60.864090   57.560501
H   69.407822   28.489670   86.315491
H   23.027233   73.360161   30.519367
H   29.555712   82.232445   96.471596
H   15.536314   11.429341   92.749207
H   61.511478   41.953484   47.074348
H   89.454376    1.221039   78.760162
H   29.908743    8.973922   42.912132
H   12.130465   41.407516   22.503862
H   21.216282   25.103918   85.978752
H    2.111627   14.607129    1.218843
H   85.113907   61.336601   43.989998
H   13.107772    4.081869   55.171356
H   75.358238   36.851273   66.794754
H   19.133272   77.202423   79.770103
H   36.242241   79.630516   14.300640
H   55.255440   24.123589   42.307819
