100
TIME:    7.292, STEP:  7292
H   24.193876   53.309425   92.469986
H   99.090164    0.005440   37.889126
H    5.113611   98.520180   37.744114
H   82.700546   32.220978   40.463520
H   29.856356   57.243298   67.989227
H   14.937673   93.308128    0.896965
H   70.795120   53.729397   60.697048
H   46.749474   19.452984   38.666817
H   74.376595   85.197250   41.081577
H   75.589211   21.087313   93.229042
H   21.970947   59.651997   37.347260
H   77.526505   89.201050   73.876656
H   78.763039   20.610371    0.448091
H   94.025383   82.599892   12.163891
H   69.174629   18.675438    0.231440
H    8.327404   73.943970   27.741503
H   37.727913   64.278473   37.207882
H   57.003773   40.010193   46.747490
H   58.837368   84.261612   47.531803
H   96.059860   50.957363   12.805826
H   31.559097   30.275703   59.323177
H   61.471481   53.764221   98.297150
H   88.383492   35.316856   23.717966
H   41.526070   24.061739   65.507523
H   68.780586    7.867264   90.392982
H   13.224911   11.133842    4.672608
H   33.281315   39.357246   44.653866
H   17.264225   96.805626    7.806266
H   69.728325   10.679485   12.475607
H   80.601120   10.362778   63.081627
H    3.040401   75.942871   32.459175
H   26.178463   51.039318   24.207069
H   83.995857   34.964439   54.717903
H   86.205788    5.454463   64.550873
H   99.477760    7.563276   68.704056
H    6.519012   56.569641   96.500862
H   79.196304   37.487427   83.046478
H   62.598534   25.504772   37.017296
H   37.274952   22.535952   37.663010
H   76.368019   29.530432   11.753484
H   36.894547    6.390875   14.140987
H   85.683830   70.198730   52.228649
H   74.042206    7.230446   28.182713
H   13.725559   35.038475   93.708855
H   24.129162   44.186192   80.106026
H   83.998314    2.000268   12.785803
H   98.703415   21.402035   95.459862
H   56.632687   70.475220   19.765148
H   78.181648   28.526623   53.594582
H   78.836670   41.722340   73.676338
H   43.000889   65.647995   30.294380
H   59.519878   87.095322   95.362213
H   60.131977   64.290222   79.361366
H    7.828407   88.227280   53.591812
H   60.195114   97.640465   62.372715
H    2.677936    4.863247   44.389908
H   58.531727   79.138741   49.517372
H   83.078537   88.247719   25.730623
H   65.380180   46.880138   51.678474
H   77.821495   88.275238   56.208763
H   19.685514   39.459732   45.853722
H   40.110603   60.069168   65.416077
H   69.115547    9.689763   33.436127
H   43.768559   81.485687   29.161503
H   21.754021   78.444885   74.641075
H   53.388306   79.766472   77.343796
H    2.517255    0.466947   19.120058
H   76.657372   34.575249   14.802367
H   20.333710   25.829712    2.890173
H   78.121498   14.903669   86.377380
H   90.477867   99.254028   74.678596
H   72.788322    9.476506   90.547127
H   31.539690   57.619160   74.783752
H   69.680412   87.908691   69.887756
H   13.734479   39.052265   54.186008
H   98.042336   74.922508    5.270912
H   29.052326   94.658882   20.065905
H   74.571747   73.915169   17.148745
H   11.192113   32.099819   99.035545
H   41.918076   11.789481   92.708961
H   53.567818    4.721444   15.815759
H   88.482521   91.760391   76.955025
H   79.110924   29.066076   24.396194
H   51.826733   36.151730   97.406273
H   97.269852   92.763268   40.874687
H   83.465744   76.902710   48.161880
H   54.170979   73.164665   71.254036
H   73.304436   21.560415   19.971207
H    7.012303   88.165703   68.551643
H   21.627726    9.261990   84.888031
H   22.441425   67.177162   87.455490
H   17.833055   43.907150   72.465660
H   52.884708   46.316296   82.906136
H   52.009499   55.570030   18.487116
H   30.519058   96.556015   83.649200
H   96.210861    7.779201   90.807472
H   83.797874   86.152771   17.819248
H   24.202074   47.266888   32.495399
H   61.338982   68.290825   34.256008
H   92.145866   91.509933   95.278351
