100
TIME:    3.892, STEP:  3892
H   54.121979   65.105103   95.582779
H   93.006462   15.762064   23.505842
H   46.654671   53.909874   77.656807
H   82.129868   72.299614   26.828863
H   60.310760   84.718468   60.176346
H   67.671638   96.991600   64.184776
H   48.989849   24.143795   94.812401
H   13.982773   25.309597   50.844051
H   57.955147   12.093534   55.100399
H   68.482597   72.266716   60.098541
H   38.230667   22.845356   64.851387
H    7.292282   18.776239   15.892275
H   95.692703   26.236145   38.295883
H   62.371849   93.079628   53.423885
H   27.843002   22.378143   63.689381
H   45.036041   71.320488    9.971010
H   11.135695   39.395893   27.692465
H   84.308311    5.432596   64.614929
H    5.887680   41.628288   68.406494
H   87.661613   23.165293   81.318108
H   33.319916   68.757202   51.606148
H   35.510178   49.250671   87.838547
H   33.780220   62.968834   20.995586
H   57.432533   83.360107   18.018932
H   90.384430   77.504745   65.283119
H   28.810476   11.641681   24.373713
H   26.466970   80.691971   77.194008
H    4.146716   38.105103   95.419243
H   95.798172    2.204977   73.195473
H   50.229416   94.512383   92.791809
H   69.231728   71.057991    1.456291
H   11.500394   44.978607   38.962105
H   44.504948   83.725334   48.419052
H   42.548218   17.044044    7.787909
H   84.026138   64.714745   61.722496
H   10.956560   90.222443    7.252417
H   53.091919   62.002426   15.139537
H    3.129838   87.724800   97.089912
H   80.790527   96.618767   67.148552
H   96.610802   47.827614   44.248997
H   69.261185   89.728348   34.039532
H   81.830338   86.533234   85.651077
H   44.764912   86.839111   82.596672
H   30.827921   77.998016   61.272827
H   19.053839   78.332092   89.159363
H   27.875515   37.150745   98.970802
H   72.140915   36.498619   62.826485
H   56.447269   35.456299    9.392784
H   78.796249   10.114822   89.220490
H    7.504390   89.975105   11.453518
H   43.247684   93.895668   94.453445
H   94.277237    2.590341   18.558887
H   89.606300   44.575867   76.828865
H   86.563560   43.705452    3.560404
H   30.906937   99.673279   33.449680
H   98.435989    8.440115   60.133942
H   42.987133   77.244591   26.149145
H   36.249504    9.336073   13.305857
H   97.231331    3.214700   12.691776
H    2.187917   26.940046   52.912849
H    5.210621   97.577049   10.945574
H   60.779930   91.715897   19.252892
H   38.288166   41.700371   66.584343
H   10.295694   62.966019   21.471638
H   86.802757   49.996899   58.014210
H   62.253426   48.789925   76.309219
H   75.305923   82.918457   54.968304
H   11.518805   40.125381   52.262707
H   50.880089   70.132034   16.132366
H    9.238710   43.899292   93.537689
H   98.442986   30.588581   15.460579
H   53.053307   22.357422   41.575901
H   53.226028   25.792263   61.960320
H   44.534023    3.085463   71.904747
H   49.819515   34.187405   96.437538
H   17.665445   57.014511   34.047558
H   20.322977   89.213913   59.881138
H   14.833568   96.231850   29.380358
H   48.147278   42.086697   61.109375
H    8.654202   96.986687   85.622002
H   87.036850   69.546188   12.604840
H   33.346130   69.645279   61.330933
H   64.045967   72.222290    0.593775
H   17.913969   45.206123    7.943420
H   62.821274    5.436811   70.466690
H   61.720737   52.015373   12.055602
H   27.092611   20.372826    9.128996
H   18.604265   93.691475   55.267525
H   36.454697   77.472038   96.359261
H   22.233206   49.149422   63.344498
H   83.299255   83.588036   15.653726
H   66.265015   88.201714    7.686543
H   34.938148   44.297012   19.978861
H   23.404125   49.311951   89.236137
H   89.299294    1.107138    5.521625
H   15.384871   42.039925   66.422050
H   53.673553   91.034660   13.356447
H   21.152533   49.375732   93.758858
H   23.307335   53.627178   19.040756
H   80.957741   78.757332   22.811018
