100
TIME:    3.844, STEP:  3844
H   57.368073   69.506958   95.626724
H   94.341667   13.159586   20.478010
H   45.829597   50.456505   78.220039
H   82.121811   74.277153   29.459906
H   60.740692   80.871056   61.477859
H   68.415779   97.043602   59.431007
H   51.505352   20.902462   91.058739
H   17.755478   21.157131   55.251400
H   59.135078   16.708603   58.122005
H   69.794365   71.577507   58.218781
H   42.695511   20.913960   69.475166
H    9.124435   16.370234   19.308840
H   98.746170   29.140198   43.066513
H   64.748558   93.227577   49.770931
H   27.259079   26.665558   65.996559
H   46.965973   75.518730   13.955568
H   14.995650   36.221210   23.322836
H   83.282921    7.766870   66.278992
H    5.140106   39.614494   65.877441
H   88.955070   24.184641   78.050041
H   36.168304   73.535522   52.908760
H   30.908371   49.186951   91.926193
H   34.421089   63.359215   22.369061
H   61.892250   82.784424   21.583996
H   92.101227   81.311142   64.928627
H   29.030752   13.071826   28.872797
H   30.606070   82.687088   76.241859
H    8.196734   35.864624   93.832817
H   94.754471   97.850052   75.464516
H   48.388840   95.700371   88.975891
H   67.342812   66.753548    5.253899
H    8.469724   46.304657   43.405708
H   41.123722   87.237297   44.094833
H   40.520142   21.442970    9.809948
H   85.219254   68.343163   58.799767
H    6.782670   86.451935    7.418081
H   48.488281   63.760239   11.357402
H    5.113694   88.602974   93.702461
H   82.816406   97.664665   71.800163
H    1.131984   52.321388   40.472263
H   72.541702   88.081131   32.908672
H   86.144302   84.379181   83.395950
H   44.351460   86.551270   79.129387
H   33.893036   77.193817   56.579468
H   23.217474   80.226135   85.051941
H   28.494778   36.235218   98.775978
H   71.765915   33.888268   62.365425
H   56.444706   34.961914    6.422837
H   77.392929   14.090042   91.135040
H    6.497676   89.244881   14.810574
H   43.251347   98.529701   93.947342
H   91.944473    7.044427   21.710133
H   88.610939   44.297546   79.616463
H   87.675377   44.488777    1.442420
H   34.728714   95.466248   33.041355
H   98.375931    8.490652   61.767975
H   39.944286   78.629601   21.583960
H   39.823723   13.869123   14.542276
H   93.445442    1.186491   16.376774
H    5.355367   23.250471   54.278084
H    2.182697   99.809471   14.687975
H   62.483543   92.162674   21.424889
H   35.029255   44.975761   69.875847
H    6.999599   62.704910   22.774982
H   84.897728   53.830761   53.544239
H   65.202156   51.176155   73.471085
H   79.156998   81.258789   52.650921
H   14.834570   37.380264   49.968029
H   48.487633   73.581009   19.142986
H    8.266237   41.484863   93.638763
H   99.967155   33.854530   16.036446
H   57.010948   23.950439   38.061375
H   56.355667   28.166409   63.191154
H   45.590908    6.123045   74.756798
H   47.505428   34.118923   92.798866
H   16.530558   53.937973   37.277172
H   15.964884   93.374069   59.032261
H   12.578441   99.370277   26.729357
H   45.845642   42.227688   60.573608
H   11.008297   99.600700   89.757256
H   86.097885   69.049606    9.736035
H   29.744446   69.331802   65.344604
H   61.008984   71.421021   96.022003
H   14.611662   41.098701   12.327422
H   65.158432    8.439283   75.119766
H   62.825596   50.252068    8.722259
H   23.886801   23.862816    6.840109
H   17.831743   97.534492   55.766670
H   35.458603   80.144646   96.751839
H   26.477041   51.124397   61.628799
H   81.334900   80.995995   14.640054
H   62.713371   84.592339    6.771885
H   31.861252   42.856705   16.266947
H   18.764599   46.400208   85.999565
H   90.129128    5.406777    4.418689
H   11.420272   43.935432   68.901299
H   57.483612   88.280022   16.117041
H   20.976385   48.967041   94.527168
H   25.593956   53.420269   23.061386
H   77.976051   79.989265   27.434980
