100
TIME:    7.004, STEP:  7004
H   43.669998   79.720558   92.733658
H    7.043462   84.400459   19.729469
H    0.162903   77.799965   41.125706
H   82.652206   44.086212   56.250874
H   32.436859   34.158825   75.798309
H   19.404583   93.620140   72.376419
H   85.890335   34.281399   38.175076
H   69.385704   94.537415   65.110817
H   81.456184   12.887435   59.211216
H   83.455421   16.952059   81.952675
H   48.760010   48.063618   65.087822
H   88.517227   74.765015   94.377144
H   97.127785   38.041279   29.068516
H    8.285290   83.487587   90.247169
H   65.676582   44.401024   14.080959
H   19.908092   99.133423   51.647949
H   60.887093   45.230343   10.990106
H   50.844837   54.024353   56.729668
H   54.352749   72.181046   32.359684
H    3.819527   57.072353   93.197533
H   48.649429   58.947823   67.139732
H   33.860641   53.381897   22.822952
H   92.228706   37.659142   31.958811
H   68.286217   20.616426   86.895706
H   79.081367   30.707840   88.266029
H   14.582821   19.622978   31.775011
H   58.117008   51.330147   38.938778
H   41.564453   83.362755   98.286362
H   63.466118   84.549843   26.088766
H   69.557663   17.491142   40.186119
H   91.706490   50.117393   55.244820
H    7.994135   58.995617   50.868690
H   63.710667   56.036217   28.772589
H   74.037331   31.847824   76.684174
H    6.645514   29.368935   51.181450
H   81.483574   34.012512   97.406136
H   51.573273   48.034302   60.353123
H   74.503059   30.776012   16.694786
H   49.432423   28.810244   65.572678
H    3.495295   56.492977   89.094711
H   56.577652   96.508858    7.356380
H    9.955032   69.069336   37.526745
H   71.563690    5.502846    7.380970
H   32.114544   30.204489   65.548698
H   49.110222   55.548252   55.461494
H   87.716087   96.507431   11.615759
H   96.453415    5.738868   92.695702
H   56.615108   67.508911    1.945741
H   69.761726   52.377941   65.083878
H   72.789795   37.338795   93.812080
H   43.020664   93.452194   27.258858
H   45.522350   13.819466   14.267545
H   54.157612   62.620300   96.086952
H   14.497108   92.925034   40.882828
H   83.125778   72.402672   59.922764
H    2.319233    5.166195   54.194107
H   40.274647   87.448799   22.126259
H    4.523728   15.446024   33.149521
H   42.667183   34.709484   73.787361
H   96.827843   66.139984   64.400169
H    1.517862   52.852066   68.307999
H   50.332283   62.749832   78.445862
H   49.562656   29.343029   53.185150
H   23.991417   79.916840   36.981571
H   10.322745    1.445951   47.821247
H   71.080688   94.083855   60.314987
H   25.624743   90.509003    5.214718
H   96.551414   18.103621    1.034301
H    5.979318   46.523560   20.953503
H   72.282921    0.421845   86.984711
H   99.622887   18.849686   78.132698
H   96.491585   19.056194   69.439308
H   50.317551   71.862823   82.166565
H   76.021721    6.136755   87.000061
H   99.862022   38.628193   32.349583
H   91.235207   56.464581   24.649431
H    2.895199   19.586315   14.958361
H   61.040981   92.745735    1.243156
H   97.381554   32.945766   95.823143
H   56.042099   27.478909   17.520195
H   47.930565    1.741657   98.602264
H   66.870216   89.892715    1.050179
H   60.895218   24.249670   96.968277
H   32.013988   11.506388   23.710209
H   11.292799   10.779824   68.793144
H   90.092697   66.325073   28.162369
H   34.936115   94.104607   57.521126
H   68.672600   44.607037   22.957291
H    1.034916    4.201170   70.907112
H   47.091389   21.111843   74.591644
H   10.655293   51.626663   81.373459
H   96.523972   22.247002   66.976891
H   34.423283   37.674450   60.634651
H   24.176426   38.097374   99.068024
H   35.498390   22.353737   77.031036
H   72.423264   19.151541    5.683167
H    6.658060   69.624939   34.383179
H   24.757982   33.017620   38.276405
H   75.058708   67.047173   58.379787
H   74.255730   98.901535   23.022594
