100
TIME:    3.271, STEP:  3271
H   96.118317   22.053856   96.151321
H   10.281124   82.093628   84.333725
H   35.980286    9.233115   84.943626
H   82.025635   97.884026   60.869984
H   65.873001   34.942577   77.014679
H   77.298958   97.664375    2.683584
H   81.536720   82.211403   46.249397
H   62.792145   71.584274    7.860975
H   73.220512   71.800049   94.188774
H   85.453590   63.350075   35.779137
H   95.994583   97.858521   24.670534
H   30.995766   87.649139   60.095589
H   35.194260   63.807327    0.018667
H   93.120522   94.993721    6.163792
H   20.288494   77.848526   93.537910
H   70.004532   25.635590   61.519875
H   61.072792   98.322800   71.160385
H   71.042320   35.632042   86.143738
H   96.214760   15.574832   35.690975
H    4.394463   36.352329   39.037498
H   70.170944   30.579010   68.459946
H   75.974304   48.426285   40.722397
H   42.071465   68.019386   38.764008
H   15.130203   75.912201   64.141930
H   12.594777   26.752579   60.696877
H   31.660295   30.145090   82.580070
H   80.017273    6.504582   64.875587
H   56.543636    9.118912   74.894859
H   82.295288   45.862473    2.551043
H   26.417519    9.882722   43.423370
H   44.790150   15.372699   50.587837
H   72.290169   62.134377   96.451225
H    0.761622   29.159931   92.474464
H   16.308567   73.955147   33.948151
H   99.462067   11.657697   23.909683
H   56.955044   41.439304    9.395970
H   93.530647   84.744125   66.207329
H   28.795387   99.086174   53.265926
H    7.001399   10.148298   27.327761
H   55.101154    5.962764   95.389503
H   11.702333   68.417480   19.409040
H   37.642326   58.664268   56.475372
H   39.415874   83.115158   37.741444
H   70.483688   67.593689    0.555363
H   72.919853    2.835837   36.019588
H   35.887226   25.306110   96.450264
H   67.289352    2.725226   56.861526
H   56.414104   29.061285   70.968880
H   60.641670   61.544228   13.991952
H   94.482048   80.527824   54.885426
H   43.295063   53.849716   87.905731
H   64.097107   60.215706   59.328121
H   76.728813   40.975098   12.894283
H    0.947376   53.839722   76.156952
H   80.351181   45.246445   28.168692
H   97.658981    9.093939   81.274246
H    3.619930   95.163155   67.086754
H   82.490959   67.982010   29.303020
H   48.252922   76.976257   60.367840
H   43.166016   79.208237   70.575569
H   66.037880   26.456059   59.361828
H   82.820427   97.496078   47.353104
H   96.128212   84.075737    9.168198
H   67.654350   59.587929   38.333660
H   62.156086   99.594093    0.182659
H    0.402618   79.661781   39.590851
H   25.130325   61.447063   24.986609
H   54.415459    4.608660   22.575315
H   19.927689   14.753120   55.082264
H   96.656799   12.663961   94.845337
H   18.163155   72.840843   22.910854
H    4.258749   42.967087   96.108765
H   93.715729   56.507771   77.880119
H   58.207424   42.384293    8.803291
H   19.880056   33.301426   49.362217
H    2.983704   17.212679   75.832031
H   63.941593   43.038330   48.898792
H   85.657852   36.837780   95.084167
H   18.369864   43.910770   54.177895
H   39.109413   30.807674   39.121567
H   74.888992   63.121655   75.488922
H   86.751068   65.589676   13.258398
H   24.754950   61.855865   41.446415
H   75.188995   92.065277   64.660492
H   93.058258   44.282154   30.665565
H   76.010864   29.202896   68.931351
H   85.617409   65.524574   79.517166
H    8.609762   43.410110   61.725220
H   23.566185   12.048450    1.438709
H   77.138641   74.698685   41.147652
H   57.885406   50.055477    2.539313
H   20.313406   41.503143   95.852455
H   95.132156   25.663031   71.955894
H   63.383350   11.642555   47.364868
H    0.035279   56.734211   91.251671
H   64.092773   66.563057   98.497322
H    2.966100   55.396526   49.071541
H   18.873625   44.088287    3.697577
H   52.890495   50.950291   71.057014
H   42.384792   94.695473   82.634064
