100
TIME:    5.092, STEP:  5092
H   72.971352   55.058968   94.484146
H   59.846443   80.792145   99.171997
H   67.282959   40.242432   63.575718
H   82.331284   22.860291   61.054649
H   49.562469   80.903763   27.639118
H   49.060772   95.691551   83.024223
H   86.098366    5.172976   88.654037
H   19.665138   29.124706   40.663654
H   28.456856   96.718246   79.564171
H   35.688408   89.496941    7.085408
H   26.609589   71.130264   49.261898
H   61.495674   78.926384   30.474424
H   19.135941   53.667244   19.055176
H    2.955871   89.380898   44.744095
H   42.437813   15.189605    6.003710
H   96.784851   66.364090   10.360401
H   14.638891   18.767551   36.933197
H    9.956889   47.057919   23.010706
H   24.578041   91.968048   31.628344
H   55.327644   97.681190   63.019661
H   62.110222   49.293213   19.039017
H   50.555344   50.843689   85.647461
H   17.758492   53.209312   86.661575
H   45.938046   97.743378   28.896530
H   47.464508   82.338669   74.145424
H   23.334112   76.126160   11.589674
H   22.989649   30.808060    0.998052
H    2.894187   94.117065   35.087059
H   21.892021   11.078264   16.470654
H   96.243820   64.812675   88.188301
H   16.456959   78.664658    6.516106
H   87.269295   11.827073   27.872078
H   29.030544   95.927834   56.524529
H   93.250122    7.071343   57.233055
H   54.198257   74.003891   34.795258
H   15.276586   84.255730    3.417935
H   68.187256   18.055660    9.694959
H   53.528950   65.770454   81.769600
H   30.137432   70.471306   50.859467
H   83.583702   35.487167   38.662296
H   87.249924   30.902082   62.311016
H   73.980522   40.389633   42.024342
H   55.101215   94.035156   69.273415
H   54.201199   98.111816   78.604538
H   14.962786   30.987404   91.846336
H   12.393414   60.038929    3.847360
H   81.515915    1.757508   74.344749
H   56.511356   47.815918   83.642052
H   13.875885   10.730953   41.352386
H   32.672237    8.234846   27.523125
H   43.156132   78.043594    7.104752
H   52.593819   91.239746   39.782036
H   14.494603   51.533875    7.133085
H   58.769875   24.122322   56.512047
H   35.362793    4.843029   43.657810
H   99.937454    7.177433   19.283112
H   19.063110   42.619347   40.279091
H   46.894424   96.010780   82.396591
H   91.872368   53.918732   20.567028
H   22.999737   19.175770   18.781990
H   80.907715   41.770153   17.384056
H   18.191084   80.546463   64.959412
H   19.755812   59.814255   84.296722
H   92.697914   69.501434   88.891144
H   34.432213   54.155216   69.764793
H   88.536491   89.134758   47.262108
H   79.027618   24.406796   12.903778
H   28.626640    8.753795    9.629645
H   10.685688   83.907692   40.871696
H   33.550247    4.254316   91.010834
H   60.338737   48.940582    1.064365
H   54.107758   82.531281   29.433804
H   74.983276   66.433449   31.189445
H   18.114773   27.146652    0.604786
H    7.677838   35.899441   87.405853
H   46.037636   33.921890   53.301678
H   29.275206   85.205757   81.103065
H   71.211746   17.766590   95.651009
H    5.694053   38.561916   74.496361
H   49.803925   31.631836   82.240936
H   10.514414   81.960739   84.326118
H   23.384201   77.482193   60.987694
H   39.955528   92.275574   14.879590
H    0.471870   47.892746   98.342133
H    4.390538   30.377251   54.140083
H   34.099277   96.091347   95.387009
H    7.237905   33.123047   66.349731
H   37.918716   97.617218   42.788887
H   61.357040   10.658133   86.544807
H   16.137163   99.775070    6.245131
H   32.408318   48.384380   40.995525
H   55.055332   78.446518   30.550955
H   11.860415   80.307259   12.776752
H   39.389191   22.099707   70.144905
H   68.553444   93.618767   33.093784
H   14.499953   94.654694    4.440422
H   58.423241   59.900097   44.343552
H   25.556219   59.593018   74.551094
H   66.141968   58.799908   18.528290
H   55.493534   47.963764    7.211627
