100
TIME:    8.811, STEP:  8811
H   21.470070   14.010832   91.079300
H   57.137802   82.319458   33.666424
H   31.223902    7.802863   19.912495
H   82.955505   69.637138   57.202980
H   16.245016   78.997757   26.802475
H   91.383179   91.662483   51.329254
H   91.185768   56.299980   79.484840
H   27.359070   50.864697   99.196312
H   37.036674   39.151016   45.466534
H   34.100410   42.897907   52.707008
H   80.677277   20.771587   91.029366
H   19.549187   65.340508   65.752434
H   81.901367   28.669403   49.494003
H   18.813463   77.917915   27.761036
H   87.624397   82.990883   27.179947
H   47.252457   41.086754    1.650504
H   15.578946   64.748512   75.488441
H   89.480637   66.095711   94.094315
H   82.499680   47.986759   27.559521
H   55.129848   18.702646   16.226404
H   41.419487   79.054657   18.098970
H    7.099495   55.780716   68.940247
H   68.102654   22.967169   80.256927
H    0.388557   42.233368   52.693295
H   14.452909   87.403748    1.610404
H    6.061991   66.355209   61.728649
H    2.296165   76.215225   74.792831
H   89.095184   67.707397   58.019302
H    2.757293   48.494656   40.670708
H   38.845253   72.767105   83.838074
H   62.826122   12.155508   12.280800
H   22.089069    9.074888   83.585686
H   90.991592   23.827446   91.561417
H   50.388123   66.247131    0.558847
H   61.674278   92.553688   61.122395
H   38.562321   75.547531   91.726173
H   24.888878   81.856697    2.737761
H   99.818367   97.705162   44.208427
H   73.158165   89.441551   90.461334
H   33.296005   87.327019   31.265371
H   33.081512   58.506882   49.927822
H   57.670822   76.155502   29.778469
H   87.114655   16.342445   37.900486
H   16.732662   60.540276   42.226864
H   92.366959   84.262215   10.092189
H   64.389641   30.967350   18.956972
H   10.577605    4.009840   10.044840
H   56.725399   86.120438   13.751949
H   22.585243    2.724045   92.999115
H   10.726807   64.842918   67.468712
H   42.896587   18.998379   46.309830
H   33.344173   46.143810   95.648537
H   91.632439   73.097900   91.143417
H   72.646637   63.449631   20.621109
H   39.250343   30.758501   75.284378
H    4.569849    3.265407   92.679550
H   54.829933   35.308952   93.986778
H   69.970642   44.797234   86.603294
H   85.182411   11.064565   35.064980
H   77.583153    5.030056   13.004784
H   15.505007   68.817383   27.421314
H   86.198296   45.930527   96.684273
H   72.240402    6.035846   29.273743
H   48.075932   89.760269   87.920319
H   82.047394   57.124889   16.098734
H   60.075233    4.252671   67.159447
H   80.645248   52.979755   92.456589
H   71.729675   21.448097   87.419357
H   96.040070   16.684059    7.621296
H    8.971831   91.198563   83.155624
H   42.239010   95.898857   56.460609
H   47.702423   59.040428    1.889262
H   32.498016   82.482323   35.836033
H   36.244038   91.771828   79.634163
H   86.906296   41.288952   69.357605
H   33.955124   72.276360    3.061459
H   67.009598   63.187061   47.007881
H   45.931774   74.596199    1.046873
H   84.032677   27.638035   15.986973
H   67.425652   29.042906   61.845695
H   83.305321   20.436197    6.604566
H    2.467085    1.612741   49.875244
H   75.190224   54.469273   69.058937
H   56.330963   66.135597   58.667706
H   23.308533   97.740402   93.626114
H   48.508030   32.695869   53.645828
H   55.621616   62.720680   43.685722
H   97.734154    0.009132    4.221498
H   38.539066    3.590339   56.128181
H   87.328079   46.768913   39.188721
H   84.605095   49.198048   19.534325
H   30.223673   58.150711    1.414585
H   50.255543   91.888939    0.372741
H   98.814774   47.726063   20.910322
H    4.252683   60.494892   18.553663
H   21.674103   47.794800   12.349466
H   63.226555   73.324013   30.460232
H   21.270044   22.429031    1.998907
H   88.977440   74.850227    7.023121
H   86.496521   52.527782   48.949032
