100
TIME:    0.640, STEP:   640
H   74.041908   63.330055   98.560074
H   83.467445   39.444996   18.371153
H   90.760529   19.948101   15.825218
H   81.584030    6.281424    5.082013
H   89.438629   24.056343   48.351830
H   18.092018    0.517088   42.127033
H   19.428509    4.552588   40.501606
H   69.583557   43.969646   49.431961
H   37.895576   24.760117   59.802597
H   57.350380   25.574516   32.751930
H   40.723785   91.994461   78.100975
H   31.413433   55.770546   47.372826
H    2.552625   22.986679   61.517273
H   23.392658    3.104000    5.943516
H   88.286354   12.856755   20.007738
H   75.790955   55.758930   79.914536
H   72.611504   24.321213   31.625147
H   14.820647   63.577454   77.358688
H   55.230118    5.200537   97.081482
H   75.325172   92.113525   59.850121
H   26.298035   92.502960   39.872726
H   23.715321   44.944664   64.761848
H   77.199104   89.417137   14.038462
H   59.578598   44.357548   59.543930
H    6.694324   35.417698   41.284744
H   43.724415    8.540101   29.186369
H    6.890459   15.872602   12.666220
H   78.539238   86.312225   87.928848
H   25.087418    7.158027   26.918655
H   25.533461   74.999802   34.266293
H   41.277531   79.434761   58.767570
H    6.167208   34.829247   40.016060
H   15.438202   21.656645   55.453209
H    5.143394   15.070394   44.788597
H   64.863625   10.541137   63.698524
H   28.200912   34.761059   18.442183
H   41.183292   81.097511   58.894787
H   37.537857   47.240383   67.603279
H   21.947834   66.845879   80.786057
H    2.912962   52.269100   88.388054
H   91.505142   78.140297   57.420521
H   74.101616   40.581810   32.868305
H   16.753531   67.337830   47.700554
H   38.490585   23.497015   43.308113
H    1.140618    6.640937   10.873842
H   69.777611   75.235405   85.828056
H   42.837879   60.266727   33.091988
H   56.273594    1.972763    8.177459
H   83.737785   79.444138   18.943739
H   39.312634   40.490604   38.902046
H   43.495792    7.855452   60.164936
H   36.235008    4.351357   32.047203
H   22.155184   25.719666   65.701271
H   61.868740   96.760414   60.057819
H   89.809097   14.610273    5.836901
H   94.367020   11.859335   70.839691
H   36.824654   71.079994   16.856911
H   78.403015   16.446983   97.069656
H   40.751953   65.810120   62.351475
H   16.785904   76.980774   45.406456
H    0.071917   48.807167   64.495026
H   76.196289   21.988327   66.398712
H   17.643410   63.510384   89.651466
H   86.987068   45.275925    9.763128
H   57.726448    9.727953   55.163803
H   62.029121   10.456776   84.027657
H   36.220665   70.487213   97.960800
H   36.156715   54.139633   96.798302
H   88.799400    3.799997   20.092205
H   43.350853   80.334129    0.384940
H    1.708552   51.857883   54.471622
H   21.196417   30.285286    3.478909
H   65.262619   86.649666   45.338612
H   16.104050    8.878677   65.171501
H   93.029221   29.554342   49.914478
H   40.789471   48.591209   52.864986
H   25.062473   71.074333    2.358759
H   62.048691    8.872318   49.785892
H   92.228722   51.627781   24.824684
H   68.138718   74.099617   65.784607
H   23.406155   35.902752   18.239979
H   89.342812   48.407242   33.262024
H   58.289898   17.939493   90.856781
H   94.195404   66.927223    4.973183
H   21.166891    8.850698   85.711708
H   36.562634   32.562176   86.226707
H    9.898886   56.819710   54.060787
H   66.257904   54.053993   89.087410
H   68.964546   58.537834   22.964287
H    9.751579   82.950851   47.091930
H   50.213993    7.990366   46.977367
H   25.640474   43.639885   45.717583
H   26.347130   46.806732   68.426933
H    9.085657   52.054245   69.969444
H   45.527195   92.401855   30.792187
H   46.782974   70.458244   34.392250
H   11.802406    4.408783    0.381787
H    9.215018   21.686890   45.795807
H   78.223991   39.609081   91.442207
H   78.987625   62.266262   36.045151
