100
TIME:    2.383, STEP:  2383
H   56.169586    3.488143   96.964310
H   34.982811   33.946945   28.318838
H   20.716429   45.346252   95.363426
H   81.876587   34.471458    9.542213
H   73.826736   63.765476    1.092602
H   91.065559   98.626411   14.742046
H   28.077812   22.248802   76.806557
H   32.587196   94.762238   89.394646
H   95.049248   57.177673   50.086330
H    9.719931   50.599709    1.003706
H   78.594177   62.127689   10.207209
H   64.890427   43.138031   23.304262
H   91.679939   17.532784   88.278160
H   37.089027   97.730782   38.587780
H    9.485912   57.167969   36.223511
H    5.708711    3.303136   35.232193
H   32.477798   39.588600   90.319809
H   52.068336   78.815269   16.930759
H   82.380409   78.323761   88.908554
H   28.316643   55.206882   78.578377
H   22.866028   18.981899   92.565048
H   90.840881   47.247452   16.343781
H   53.927544   75.241432   64.169891
H   97.634964   65.262054   30.091591
H   44.353630   97.180878   54.143974
H   35.732296   56.601322   65.812340
H   56.590828   43.419086   47.254406
H   31.471594   67.670097   45.541721
H   62.986816   65.296364   44.526054
H   92.368736   31.860977   72.830345
H    9.843339   35.742474   20.845451
H   16.221077   86.672554   78.657829
H   38.212872   94.131096   12.476415
H   78.788399   55.335007   71.359161
H   21.537022   78.783539   69.835396
H   79.746872   71.682365   12.448064
H    8.360063   17.265409   96.236511
H   65.495308   15.338398   90.603508
H   44.486549   29.494032   13.381922
H   38.741512   89.094688   25.523291
H   72.388496   37.949764   98.486984
H   17.450745   18.807518   14.756876
H   31.767012   77.790085   73.599236
H   27.188116   52.710861   13.731444
H   49.947506   37.869480   60.030861
H   47.343586    8.368855   92.846016
H   60.348293   54.433563   48.331924
H   56.366680   19.918554   16.024422
H   34.687019   35.089176   49.416290
H   75.864616   67.018669   16.994961
H   43.362812   39.580574   78.542816
H   20.941851   42.614651   17.621883
H   58.312538   35.826172   64.470299
H   21.509205   68.329216   36.970917
H   51.050377   67.412491   20.626600
H   96.547897   10.027531   11.503860
H   47.322834   20.786827   82.630516
H   48.613617   51.842804   52.175491
H   78.218620   39.456844   28.538687
H    1.766337   10.952604   95.832405
H   10.021839   67.749702   28.598461
H   14.335732    5.762627   87.531082
H   35.869999   44.650871   70.075119
H    6.675246   54.757423   62.445538
H   26.906757   70.518646   17.484983
H   54.953743   23.806923   87.086906
H   96.375526   30.749842   82.113174
H   15.755859   53.823730   80.123779
H   75.671471   78.559151   10.774055
H   78.662659   68.002510   96.715210
H   46.361961   33.260796   33.564884
H   77.477417   72.437912   31.093424
H   51.615829    0.435017    0.643980
H   77.748253   98.577942   61.579781
H   77.064720   32.034519   82.045273
H   81.994270   60.301918   35.584087
H   83.316162   20.003962   33.194569
H   43.938000   94.901863   46.044941
H   75.785233   46.519108   44.266212
H   82.658485   79.171494   15.623490
H   57.515614   53.934887   22.414951
H   20.122215   59.790359   87.512184
H   68.574936   47.032379   56.868839
H   14.098514   16.077974   45.769104
H   36.297684   99.825211   16.747177
H   96.443970   96.585442    7.265957
H   26.309912   30.089417   37.174026
H   94.316757   14.505606   70.964516
H    5.135912   61.490456    8.703846
H   55.649960   11.231041    9.405175
H   21.544830    2.107468   83.786331
H   54.607983   74.725883   78.928749
H   38.181385   99.037033    3.270269
H   77.554146   57.780476   87.491936
H   15.390182   36.275192   70.845665
H   90.747589    1.629860   44.363998
H   73.451096    4.436095    0.140762
H   15.614697   36.527496   17.906467
H   95.192986   47.122471   45.437225
H   87.233658   17.493935   68.168732
