100
TIME:    9.833, STEP:  9833
H   52.356110   20.288857   90.143631
H   28.912216   37.700344   98.106499
H   48.791088   81.329567    7.915125
H   83.127045   27.531622    1.181526
H    7.087156   60.915298   99.093742
H   75.539185   90.555275   52.541252
H   37.622562   25.309259   59.406582
H   47.031891   39.281078    5.359657
H   11.913963   40.889160   81.135628
H    6.182680   57.572315   92.722450
H   85.613251   61.893173   92.582588
H   80.543480   16.567703   93.005791
H   16.732025   66.809212   47.931015
H   68.210205   74.767830    5.534886
H    0.037611   91.700806   78.030296
H    6.158587   51.698837   16.815769
H   33.395729   32.347237   68.525131
H   11.340125   16.364906   58.664825
H   98.421646   90.858902   81.410126
H   27.597790   96.998505   85.808983
H   80.772064   77.312263   90.357834
H    5.079636   57.137436   81.907516
H   54.457481   14.658894   51.017273
H    5.430012   54.459442   76.790863
H   77.900253    6.353676    9.154377
H    1.241067   36.226669   65.553703
H   14.168018   33.730297   95.065659
H    2.862207   15.410909   91.798332
H   24.980389   41.218418   92.361435
H   78.034187   47.472855   65.083870
H    3.044956    3.800413   31.423431
H   86.619034   80.835434   88.974037
H   62.982109   49.053055   83.631248
H   93.569244   72.586937   57.502525
H   36.239677   15.173866   23.300467
H   27.402884   55.597889   88.513710
H   22.911976   44.429939   83.267349
H   57.574100   79.007378   16.329117
H   30.017681   67.172630   91.422020
H   37.034870   91.649979   11.674226
H   63.235504   93.577652   74.005699
H   71.542000   80.167221   81.944328
H   95.909943   22.474976   11.721081
H   51.481937   77.695778   42.151340
H    3.696432   43.914555   97.538773
H   51.204277   50.460247   23.109003
H   18.568455   59.594410   19.858850
H   56.787777   96.646713   76.987503
H   52.456474   18.081661   52.232887
H   32.177498   80.406212   96.009224
H   46.033756   20.571785   52.156555
H   83.012604   51.310173   28.560873
H   12.828808   79.023804   31.786705
H   48.979164   46.771332   65.719368
H   57.876900   20.321676   83.970505
H    5.842749    2.190362   57.888260
H   19.621994    5.819185   91.187492
H   93.870804   48.281761   60.279808
H   65.788811   54.251595   56.606510
H   10.143076   83.585281   83.936684
H   79.977448   21.291529   47.744816
H   49.925529   36.417892   50.444344
H   41.642994   36.329178   59.207138
H   18.254211   95.327499   60.176659
H   22.610851   75.497993   11.272822
H   97.293457   53.446007   27.588556
H   98.647957   88.314423   41.799938
H    1.133045   79.896919   36.276871
H   46.978348   43.249664   43.524761
H   29.728088   42.529743   80.987991
H    9.781391   26.358837   44.203346
H   63.542336   25.106834   76.799957
H   65.862442   31.929953    9.629505
H   13.748997   27.090069   18.910089
H   36.135551   42.793819   46.846210
H   58.118774   37.775806   34.293396
H   59.829048   74.729660   65.135979
H   93.944252    7.773839   57.491219
H   33.041397   24.636097   27.394335
H   17.306129   73.368996   73.799538
H    3.312738   31.009256   67.688454
H   79.155724    8.247254   64.373863
H   39.832336   71.560829   66.389145
H   26.644154   53.590530   65.323784
H   73.546539   33.806709   94.555313
H   24.983753   70.238289   24.616734
H   23.878756   88.412636   92.418480
H   14.169441   18.231009   93.629868
H   59.747562   46.686226   47.769539
H   96.969177    4.718391   75.721298
H   26.430197    4.384336   41.117088
H    5.841325   35.014618   20.884562
H   15.767604   22.553373   79.405571
H   94.376381    9.486260   94.750755
H   86.583405   68.950203   42.036720
H    6.087104    7.438254   59.561691
H   82.105217   31.973267   71.683136
H   19.297342   72.996262   81.476952
H   40.291466   79.263466   21.420506
H   49.976013   26.304813   50.496410
