100
TIME:    1.078, STEP:  1078
H   44.421303   23.163124   98.159073
H   71.283699   63.194279   46.000118
H   98.285980   51.459454   10.682381
H   81.657547   88.235802   81.074944
H   85.515503   59.163979   36.475517
H   11.300064    0.040401   85.503654
H   96.473061   34.129475   74.753777
H   35.157623   81.862473    9.215046
H   27.128700   82.648026   32.230438
H   45.380501   31.861877   49.904747
H   99.982101    9.618150   35.911217
H   14.695034   77.725349   16.195848
H   74.689941   96.486717   17.984735
H    1.705739    1.753565   39.276722
H   93.612984   73.733185   98.952988
H   58.180328   17.446629   43.557114
H   37.396935   53.286850   71.504677
H   24.180573   42.277618   62.174118
H   62.050476   23.576342   20.156282
H   63.472549   82.922226   89.727928
H    0.306588   48.899628   27.985825
H   65.713493   45.522774   27.465481
H   71.351173   85.854912    1.506346
H   18.883682   49.610661   27.012726
H   91.029045    0.680969   44.516174
H   41.716068   95.488968   88.132004
H   69.122528   97.665115   21.357916
H   41.582344    6.756739    2.405221
H   34.611191   46.896366    6.215273
H   42.328075   64.159409   69.086540
H   58.507206   18.713514   24.108101
H   33.822636   22.729042   99.468239
H   46.291004   89.611015   94.911705
H   23.650078   74.930489   26.336382
H   53.976448   77.431557   90.371735
H   66.282806   69.166946   16.935087
H   83.193016   65.057472   93.407600
H   19.436005   39.223705   98.513771
H    2.256535   57.495872   38.805931
H   61.656967   11.264156   22.848516
H   61.570694   93.171150   67.741745
H   34.736687   60.240883   53.446339
H   20.526281   69.964386   79.337807
H   10.522051   30.837004   86.135017
H   63.145912   89.358719   48.356468
H   64.179893   83.477974   87.549232
H   47.462757   83.892899   36.834663
H   56.296986    6.482446   35.278439
H   96.543083   43.168839    1.471127
H   48.498898   47.157246    8.268913
H   43.462376   65.569603   64.783127
H   57.521477   63.709660    3.292155
H   31.241198   28.259338   40.261322
H   51.726757   89.615913   79.386063
H   54.941193   53.008701    9.553679
H   94.915054   11.399019   55.929138
H   64.590698   58.441780   58.514229
H   45.788269   75.083794   85.788162
H   75.295937   84.316315   28.724365
H   87.881989   10.645857   32.948692
H   27.702082   28.439659   30.346405
H   60.650818   17.911484   46.579643
H   47.353432   33.642494   59.603127
H   17.063177   47.658539   97.870705
H   75.111046   74.746696   95.953011
H   35.121956   88.682564    9.925320
H    1.078160   85.631683   19.108307
H    5.900912   79.188828   17.737234
H   10.628563   72.328125   92.621651
H   52.223000    2.362678   99.463165
H   87.800331   22.054045   49.218510
H   85.080948   15.748985   35.547531
H   36.704666   64.982246   34.107243
H    6.464145   81.162140   39.139854
H   14.147077   30.177565   83.117363
H   51.145321   76.663109   23.394268
H   64.831383   33.112907   10.108894
H   82.626724   80.233559   73.974899
H   13.223070   50.344578   29.708542
H   46.658432   50.244812   28.050415
H   31.977551   40.434063   44.417782
H   22.205986   51.267715   96.635330
H   86.005058   25.249407   32.573948
H   24.326300    4.407448   64.966652
H   99.839172   81.454803   43.252388
H   26.480801   48.652340   16.643044
H   39.151909   24.973549   74.946259
H   73.308838   18.987080   84.536049
H   78.053902   34.150291   19.380341
H   71.027847   64.925858   62.751019
H   68.138741   31.641069   56.227123
H   58.048038   76.582115   54.061745
H   54.450279   59.929489    2.311573
H   51.421196   78.622063   99.503166
H   37.954960   53.169670   40.857109
H   82.959946   53.161736   11.768955
H   77.035904   29.544477   75.192230
H   10.823199   25.416199   38.788315
H   57.358574   41.497128   54.751461
H    6.188889   51.014843   93.858833
