100
TIME:    1.927, STEP:  1927
H   87.007477   45.305557   97.381790
H   47.667259    9.223269   99.554893
H   12.878233   12.540275    0.714474
H   81.800049   53.258080   34.537518
H   77.911087   27.215061   13.456112
H   98.134895   99.120430   69.583733
H   51.975376   91.457451   41.146767
H   68.427895   55.311100   31.263245
H    6.258659    1.020100   78.789803
H   22.179983   44.052223   83.149284
H   21.010178   43.779423   54.130497
H   82.292404   20.280977   55.762901
H   20.686264   45.121284   33.601021
H   59.667763   99.136299    3.884717
H    3.938956   97.900146   58.144714
H   24.044662   43.186897   73.083755
H   69.139542    9.432594   48.802650
H   42.323647    0.990470   32.741013
H   75.276283   59.195320   64.882553
H   40.601006   64.889267   47.531746
H   49.925720   64.379395    4.942631
H   47.121220   46.643356   55.175209
H   60.015800   78.950050   77.216156
H   40.002357   59.793064   63.959694
H   60.663200   33.345398   50.779778
H   37.823177   70.188416    8.554921
H   95.911186   62.376179   38.205517
H   69.946457   46.385555   30.468225
H   53.071655   23.924391   66.081963
H   74.883263   43.146866   36.579128
H   91.904457   94.848923   56.926739
H   87.429230   99.273506   20.872002
H    6.092363   27.493408   71.396332
H   59.521675   97.124802   90.570221
H   32.873222   13.253844   42.068733
H   40.100140   35.859806   14.015355
H   64.622437   33.966164   60.305363
H   84.344551   23.684528   58.423328
H   64.091690   39.372231   57.434029
H   81.691246   31.783689   89.646561
H    3.553017   22.303606   87.743820
H   58.433411   98.341331   93.333893
H   27.839216   75.055588   40.662491
H   56.307091   45.067490   69.145065
H   89.502541   55.859409   21.008829
H   53.226582   99.671364   90.995186
H   56.427418   29.691576   44.089302
H   56.342327   15.223639   87.809792
H   21.358953   72.854576   67.607315
H   66.304314   60.079571   48.886990
H   43.397602   83.603889   73.734833
H   98.782234   84.928055   47.558712
H   48.853127   33.182129   90.952477
H   32.067982   75.767326   16.849669
H   87.351547   27.435751   16.757948
H   95.977341   10.506763   27.027176
H   18.415789   33.944420   39.261253
H   82.568695   94.905914   63.920609
H   42.254784   20.189054   63.547729
H   31.856579   75.904037    8.801593
H   81.257126   88.957710   64.150414
H   30.518318   10.007881    8.162776
H    4.939386   75.746208    1.358353
H   75.363770   52.276894   74.824272
H    8.807239    6.937277   75.019547
H   82.966682   46.476112   60.124630
H   32.962234   14.984792   60.098034
H   47.254768   27.744835   58.324345
H   52.944923   11.324387   39.374786
H   69.422424   45.066048   97.675415
H   60.841576   64.287743   39.036106
H   15.077451   87.571579   97.707207
H   81.347397   22.989399   12.336849
H   87.781700   27.434816   88.681221
H   55.078827   31.385592   47.477886
H   71.216316   31.074862   66.265678
H   41.914162   59.528397   25.128756
H   22.514294   24.718458   20.860432
H   53.920296   47.857273   39.177650
H    5.021619    4.004930   54.908394
H   48.591969   49.217358   95.161385
H   85.908051   56.812332   25.643217
H   39.724110   39.420319   13.437006
H   82.730537   77.057472   87.419739
H   58.500687   28.349091   60.951401
H    6.938662   79.837517   75.599937
H   95.854683   63.244324   15.430227
H   86.976059   51.014236   75.709877
H   95.672310   86.880226   12.434208
H   95.965378   29.993309   93.103905
H    2.883334   77.483246   74.156448
H   20.865770   40.434277   70.238197
H    8.924335   85.371506   67.993088
H   33.479717   30.119036   56.745323
H   23.275345   77.121063   60.366905
H   53.083893   19.636137   67.916855
H    9.646415   78.267143   26.365921
H   13.940427   32.644928   25.203678
H   16.915173   45.156834   83.634995
H   58.914566   29.206001   12.087980
