100
TIME:    4.105, STEP:  4105
H   39.717438   45.571869   95.387772
H   87.105812   27.307413   36.939049
H   50.315933   69.234200   75.157463
H   82.165619   63.524284   15.153583
H   58.402939    1.791355   54.400879
H   64.369514   96.760841   85.278069
H   37.827305   38.527210   11.469354
H   97.241386   43.736164   31.286442
H   52.719200   91.614288   41.692020
H   62.661629   75.325081   68.439117
H   18.417923   31.415928   44.334927
H   99.162300   29.452890    0.731188
H   82.118637   13.352543   17.128738
H   51.825203   92.423103   69.633301
H   30.434162    3.352520   53.449871
H   36.471970   52.690788   92.289978
H   94.007362   53.483547   47.082695
H   88.858482   95.074348   57.229160
H    9.205112   50.564499   79.629166
H   81.921898   18.641935   95.820152
H   20.680191   47.552143   45.825806
H   55.930695   49.533432   69.699615
H   30.936363   61.236519   14.900868
H   37.642540   85.914703    2.199255
H   82.766144   60.613533   66.856178
H   27.833414    5.299420    4.403440
H    8.099718   71.838638   81.419167
H   86.173828   48.047226    2.459431
H    0.429625   21.529671   63.126595
H   58.396973   89.240685    9.724556
H   77.613792   90.158958   84.604408
H   24.949263   39.094261   19.243614
H   59.509136   68.140999   67.607773
H   51.547806   97.524078   98.814888
H   78.731689   48.613640   74.693451
H   29.477850    6.950357    6.523067
H   73.521317   54.202133   31.923147
H   94.325706   83.827904   12.120642
H   71.800690   91.977592   46.507027
H   76.547798   27.886658   61.008251
H   54.703888   97.037872   39.057720
H   62.687119   96.091843   95.658203
H   46.599606   88.116409   97.982750
H   17.226973   81.566650   82.099609
H    0.577711   69.927277    7.386375
H   25.127537   41.213398   99.835335
H   73.804977   48.082054   64.871742
H   56.458645   37.650131   22.572029
H   85.023483   92.474030   80.724670
H   11.971683   93.215477   96.556129
H   43.231434   73.332146   96.699280
H    4.628515   82.826218    4.575287
H   94.023216   45.810913   64.458900
H   81.629875   40.229446   12.958945
H   13.947849   18.340403   35.261623
H   98.702499    8.215857   52.882919
H   56.489765   71.098610   46.407158
H   20.388908   89.220802    7.819244
H   14.029867   12.214802   96.339775
H   88.131332   43.312534   46.854622
H   18.647112   87.670677   94.338264
H   53.220146   89.733322    9.614924
H   52.749584   27.165554   51.978294
H   24.922056   64.124863   15.688046
H   95.256325   32.984135   77.849709
H   49.168434   38.201027   88.903442
H   58.216782   90.283234   65.251694
H   96.805183   52.306839   62.445339
H   61.496613   54.827209    2.773132
H   13.554060   54.613319   93.089172
H   91.679482   16.095474   12.905170
H   35.491272   15.288365   57.171612
H   39.338257   15.256992   56.498489
H   39.844097   89.606972   59.248772
H   60.088276   34.491291   12.584682
H   22.701509   70.665855   19.715446
H   39.662338   70.753220   63.648029
H   24.840694   82.305077   41.144173
H   58.360786   41.461048   63.486839
H   98.208130   85.387001   67.271812
H   91.203506   71.749771   25.334864
H   49.328606   71.036331   43.520264
H   77.520973   75.777924   20.880962
H   32.567924   63.432808   88.488754
H   52.450134   92.114037   49.818665
H   56.817928   59.840042   26.847015
H   41.318398    4.885994   19.285902
H   22.032331   76.638084   53.052567
H   40.874863   65.612343   94.617195
H    3.400918   40.385468   70.959396
H   92.016083   95.090218   20.151896
H   82.024857    4.218660   11.745523
H   48.591911   50.688377   36.450481
H   43.992023   62.232811    3.598174
H   85.616905   82.028831   10.415902
H   32.977783   33.628609   55.420387
H   36.766418    3.258263    1.106331
H   21.934187   51.189301   90.349480
H   13.160454   54.545338    1.199214
H   94.188988   73.290627    2.291913
