100
TIME:    9.674, STEP:  9674
H   63.108795   34.869514   90.289200
H   33.303116   29.083881   88.081657
H   46.058033   69.890282    9.781742
H   83.100357   34.082634    9.897063
H    8.511911   48.170746    3.404749
H   78.004150   90.727531   36.794342
H   45.955166   14.572345   46.972576
H   59.528976   25.526035   19.958778
H   15.822487   56.176315   91.143486
H   10.526091   55.289310   86.496956
H    0.403046   55.495422    7.898621
H   86.611275    8.598133    4.323586
H   26.870895   76.433739   63.731300
H   76.083054   75.257912   93.435158
H   98.106392    5.903450   85.677513
H   12.552048   65.605515   30.014618
H   46.181526   21.831100   54.050735
H    7.939879   24.101891   64.175858
H   95.944550   84.189423   73.027786
H   31.881153    0.375631   74.983513
H   90.207352   93.140450   94.673950
H   89.836151   56.926361   95.447845
H   56.580360   15.951727   55.566299
H   20.203430   52.557343   88.598923
H   83.587143   18.963577    7.980728
H    1.991126   40.913986   80.515755
H   27.878784   40.340336   91.911667
H   16.277899    7.989324   86.543297
H   21.523129   26.792765   99.877640
H   71.937279   51.408066   52.443642
H   96.787483   89.542160   44.003006
H   76.579636   85.229187    3.693442
H   51.781799   60.686432   69.307274
H   86.851242   87.158379   64.201118
H   40.196724   27.212410   13.626279
H   13.581728   43.143261   89.013496
H    7.661824   50.252693   70.738724
H   64.145348   81.916328    5.109358
H   36.729618   70.637169    6.830231
H   52.010265    6.534793   99.164444
H   74.102219   88.121246   70.259727
H   84.941612   79.541275   73.831291
H   94.541595   21.520893    0.236609
H   61.634151   75.027016   26.605801
H   17.501257   50.207981   83.940216
H   53.255585   47.427563   22.463041
H   17.325054   50.946407   18.332197
H   56.778072   95.009064   67.149475
H   47.809189   31.249577   58.576050
H   28.840330   77.984917    7.126322
H   45.148212   35.855301   51.858139
H   75.285324   66.064621   38.998360
H    9.530764   78.101868   41.021820
H   52.660843   49.366096   58.702950
H   70.536537    6.387496   82.619141
H    5.644714    2.357615   63.300995
H    9.542370   10.407261   76.065315
H    5.710252   63.297188   64.375145
H   53.248058   47.532379   68.813194
H   20.635120   71.364777   88.459023
H   69.947754   28.685820   60.141216
H   55.568748   37.897842   57.639084
H   30.835655   47.158287   70.100540
H    7.335711   94.461365   64.493851
H   16.299835   88.196449   96.465736
H    7.060802   61.350395   18.187235
H   11.405163   82.816772   34.123608
H   12.116515   70.803719   28.675751
H   39.053337   54.674393   53.497440
H   26.498886   34.544079   81.325226
H   14.831114   37.178242   46.110298
H   76.636208   30.386131   65.144745
H   76.229370   39.794315   13.706646
H   17.248714   37.152813   28.356901
H   28.476484   42.559696   34.790684
H   54.359459   27.585037   44.991493
H   45.388618   88.490768   62.316071
H   86.474144   18.169884   48.709778
H   25.417227   25.103130   25.619608
H   25.103161   82.030342   87.497566
H    0.200277   29.364328   58.185234
H   67.223930    7.215044   77.676430
H   29.774878   68.901772   51.246540
H   15.705262   39.984695   79.846703
H   81.288376   43.752701    9.968431
H   28.643597   64.398552   13.575271
H   13.259508   99.973228   84.836769
H   11.612585   30.954332   95.277222
H   56.448002   55.539238   49.069954
H   11.026971   11.260498   70.036835
H   19.923269   95.798691   37.759300
H   94.076935   23.056589   17.855516
H    5.575625   17.782354   67.109856
H   79.906837   99.907333   82.651558
H   89.332230   83.191689   38.382942
H   92.954300   13.716806   67.774200
H   94.726036   22.849133   80.827286
H   19.604250   65.128265   84.669762
H   47.865898   78.576866   34.738842
H   40.100380   30.384987   65.813751
