200
TIME:    0.363, STEP:   363
H   13.250740   62.066784   17.442801
H   29.060589   34.673824   94.890488
H   15.559650   74.521843   51.406609
H   21.988661   78.411415   41.283276
H   13.904221   86.846664   51.890057
H   85.617188   49.476582   61.908649
H    5.141273   55.216858   52.032124
H    5.644988   94.197815   20.706352
H   92.423660   85.662239   44.718834
H    6.531373   73.175957   91.220848
H   16.480932   97.221748   96.848587
H   31.286423   45.305889   18.602982
H   14.193057   91.089989   56.250511
H   98.589844   53.725880   48.192837
H   13.683388   72.891449   42.675953
H   25.715172   20.898453   51.669636
H   89.993683   13.479197    9.460207
H   33.641361   89.079994   41.330574
H   69.117851   25.248899   44.294506
H   90.447571   78.015526   32.702633
H   59.561203   82.898308   20.205288
H   87.290733   53.515831   65.834755
H   91.321930   61.647148   46.184891
H   11.213508   89.180588   91.200394
H    8.592680   17.650904   41.021381
H   18.559275   67.794899    2.894148
H    1.277621   61.264790   54.027313
H   97.333038   75.203445    1.054916
H   16.249115   52.791084   37.618130
H   87.491188   24.059357   94.371124
H   13.200906   56.588017   16.345194
H   29.689339   66.389145   96.631393
H   24.151337   11.632222   74.681557
H   92.355705   63.712112   40.440208
H   42.085804   84.718552   33.283489
H   29.043430   47.117496   80.886917
H   89.794785   71.774223   86.878334
H   26.830889   47.937012    9.637125
H   48.517998   41.996162   47.165707
H   88.903160   39.182682   58.891693
H   80.540909   99.478065    5.606916
H   19.461535   40.527653   36.183987
H   74.487198   84.956360   54.895550
H   37.007248   69.207848   23.147392
H   32.979519   80.047874   48.802620
H   39.328884   10.637444   44.025589
H   82.292038   20.186146   98.876015
H   87.121338   65.548729   43.225845
H   91.837196   24.084484   61.255013
H   57.715759   18.356577    0.508615
H   75.282257   68.939285   22.994133
H   16.436186   37.815044   66.186180
H   55.493595   90.902237    9.537375
H   20.575979   84.779358   83.524628
H   71.992569   73.649452   86.795410
H    3.728882   69.319916   82.675903
H    5.079458   17.210915   48.335178
H   68.752487   61.438747    3.083442
H   25.585739   76.853531   10.101379
H   40.258484   95.298500   64.720451
H   50.021160   12.976643   38.642841
H   92.146660   16.716261   50.008820
H   74.835930   27.754501   80.735245
H   27.106211   65.327820    6.413719
H   73.325615   77.912735   22.959274
H   33.914837   21.339771   35.074203
H   81.580666   20.567503   88.376350
H   96.652626   91.729576   89.706741
H   20.897614    7.515416   60.422974
H   44.528931   43.773796   50.976025
H   58.411205   78.719521   76.571426
H   28.683611   20.588757   43.903831
H   81.397598   27.789547   95.377052
H   11.872515    6.261079   64.153175
H   80.642746    2.862664   61.829262
H   56.422729   14.734119   62.073719
H   94.907700   34.529194   70.405754
H   21.999468    8.209702   43.761559
H   12.465691   35.173401   32.214237
H   66.422722   89.980965   88.428436
H   48.588505   28.023224   99.307724
H   32.044785   66.378403   84.054771
H   10.519831   15.015508   86.680893
H   20.663044   65.881645   97.860443
H   34.528164    0.624514   54.296452
H   28.132547   81.470749   25.222355
H   41.367939    3.040414    2.053306
H   74.308617   13.966466   16.081480
H   69.450302   72.356468   77.613762
H   22.828060   91.560349   53.512310
H   36.086697   35.954613   80.207390
H   83.198654   89.614639    1.051695
H   53.102737   15.474886   92.226723
H   54.512329   90.014648   72.482025
H   28.241613   55.262390   73.062592
H   64.178352   30.459324   23.278461
H   80.974098   10.024866    3.626525
H    3.513348   30.350027   49.758144
H   34.230812   68.545891   53.317142
H   69.343079   99.926208   27.280436
H   15.353985   83.827209   74.731697
H   95.146141   78.517448   65.186127
H   25.729071   32.674942   32.221756
H   27.786278   68.166580   95.046822
H   25.175690   25.856312   29.075333
H   92.292542   20.750835   38.132183
H   71.484924   31.624052   55.686798
H   64.026741   38.996952   13.985431
H   75.922424   38.537045    5.080265
H    8.317931   26.345434    6.139258
H   48.812840   94.997925    0.882390
H   90.932838   66.438416   91.912216
H   54.957737   81.701988   91.259949
H   62.807518   16.745619   71.782135
H   59.745628   87.090439   22.459936
H    9.018791    2.198972   84.483238
H   27.517818   10.174673   85.613998
H   40.147068   33.050667   31.519859
H   23.533539   62.331554   77.460602
H   74.028610   49.129757   53.931141
H   41.838326   22.576794   83.489334
H   12.981888   24.566250   51.806225
H   35.201790   16.635006   27.677944
H    2.265086   62.892437   12.478856
H   73.235909    5.906662   88.745102
H   52.228619   65.717819   23.156490
H   92.329277   49.764236   66.304504
H   72.738235   88.534660   36.041401
H   93.981384   48.031357   82.087219
H   73.706947   23.566355   68.597092
H   53.574112   80.793915    8.111866
H   76.978836   87.271317   12.227628
H   92.036110   88.579010   98.290108
H   94.889366   16.156626   51.221226
H   10.502407   99.146103   50.764809
H   59.082069    1.468991   81.869522
H   69.096352   86.877953   61.461823
H   92.267494   60.380486   81.254913
H   49.528244   46.053749   71.520996
H   43.514572    3.190699   92.039780
H   56.707035   59.451542   18.883163
H   51.575897   44.748066   49.114220
H   51.051487   59.024918   95.235512
H   52.076958   22.075235   80.162666
H   46.083515   65.687782   53.090595
H   50.446873   64.095123   23.955265
H   47.640343   96.239143   46.401192
H   39.293854   68.840164   68.119286
H   68.473480   59.656872   96.721703
H   13.382798   90.017670   85.394005
H   71.884743   63.398861   50.415634
H   38.965076    3.706359   44.297787
H   81.889763   27.239414   99.146599
H   13.161384    3.966027   72.912994
H   18.489952   57.127365   62.978664
H   67.153473   43.833889   57.845119
H   60.598766   64.572105   82.212204
H   47.794804   34.686409   12.605772
H    6.752353    1.270872   98.043472
H   62.300674   51.925171   82.961304
H   55.164158   79.412323   80.145508
H   37.829098   22.418882   34.478405
H   70.513893   29.207247   37.180908
H   15.789514   23.793030   65.936157
H   57.776474   26.261965   11.033107
H   14.032872   60.525635   61.629448
H   72.781830   95.577522   53.525627
H   23.739662   36.528805   53.098927
H   95.744278   27.770210   36.566494
H   32.086086    9.531504   89.018250
H   77.015198    7.096574   35.965752
H   41.913795   60.878582   57.835827
H   40.049480   72.169083   86.963150
H   69.711464   71.595901   77.093109
H   65.721039   94.111267   93.447968
H    4.704932   48.325249   23.404751
H   34.154167   56.763493   92.053299
H    2.820118    9.318161   66.452988
H   72.456001   18.520212   67.696251
H   80.449509   55.774513   88.120132
H   79.172188   89.597153   38.859478
H   21.708603   30.256191   74.106483
H   59.972412   90.038132    8.504443
H   54.159344   25.448051   81.715324
H   87.113579   82.999489   77.890091
H    1.835397   37.261658   84.569801
H   35.634918    2.417670    1.990499
H   84.511848   72.434639   29.830355
H    3.056387   61.721909   67.949158
H   51.850285   57.604221   67.257034
H   53.696159   26.954906   78.423103
H   46.644588   88.271835   23.057703
H    6.832609   20.450239   60.623806
H   32.954594   68.439980   35.792107
H   80.673615   48.761383   21.413939
H   75.628433   10.685264   27.881212
H   10.278874   88.913307    7.618329
H   25.334831   94.961609   43.497860
H   10.273077   11.956059   72.516075
H    6.724864   30.825640   96.039940
