100
TIME:    1.017, STEP:  1017
H   48.546547   28.757149   98.214920
H   72.980522   59.886730   42.152248
H   97.237915   47.070797   11.398621
H   81.647308   90.748924   84.418327
H   86.061874   54.274559   38.129524
H   12.245975    0.106790   79.462852
H   99.670311   30.010283   69.983498
H   39.952103   76.584915   14.815935
H   28.628197   88.512909   36.070396
H   47.047539   30.986240   47.515884
H    5.656158    7.163763   41.786804
H   17.023396   74.667717   20.537733
H   78.570389    0.177289   24.047644
H    4.726025    1.941627   34.634426
H   92.871147   79.182007    1.885185
H   60.632950   22.782360   48.620590
H   42.301247   49.252823   65.950676
H   22.877007   45.244034   64.288864
H   61.100609   21.017145   16.942743
H   65.120125   84.209503   85.569832
H    3.926380   54.972542   29.641460
H   59.864429   45.442261   32.659733
H   72.165611   86.351021    3.251686
H   24.551239   48.879063   31.543327
H   93.210808    5.518749   44.066139
H   41.995770   97.306793   93.849823
H   74.382401    0.200606   20.147429
H   46.729126    3.909406    0.388936
H   33.284821   41.361912    9.098652
H   39.989010   65.669144   64.237144
H   56.107639   13.243052   28.934925
H   29.971045   24.414230    5.115287
H   41.994030   94.074135   89.416344
H   21.072731   80.520790   28.906050
H   55.492699   82.042671   86.656967
H   60.979187   64.375259   17.144979
H   77.342094   67.291359   88.601021
H   21.957039   40.340183   94.208885
H    4.998940   58.798042   44.652664
H   67.402519   16.974859   18.049150
H   65.739410   91.077812   66.304611
H   40.219017   57.502975   50.580448
H   20.000853   69.598587   74.931465
H   14.417158   29.814768   80.170540
H   68.437355   91.765732   43.136154
H   64.962715   82.322563   87.306465
H   46.818653   80.602570   36.313423
H   56.293728    5.854398   31.504103
H   94.759697   48.220680    3.904522
H   47.219532   46.228786   12.535172
H   43.467030   71.458687   64.139954
H   54.556923   69.369797    7.296809
H   29.975794   27.905640   43.804359
H   53.139225   90.610924   76.694229
H   59.797569   47.660870    9.036045
H   94.838730   11.463127   58.005722
H   60.723679   60.201897   52.712639
H   50.330505   80.844429   87.359329
H   70.484703   81.738968   33.407452
H   91.907639    5.957022   34.683678
H   23.853979   31.276230   35.102257
H   62.815826   18.479263   49.339890
H   43.215622   37.802177   63.787941
H   12.874407   47.326714   99.526573
H   72.690071   79.618431   90.272423
H   38.869301   91.715065    6.318639
H    5.972448   83.522522   16.163067
H   10.114697   75.700241   14.821082
H    7.588258   76.711197   96.447182
H   50.987381   99.294579   99.591614
H   89.737297   26.204653   49.950108
H   90.110916   17.773460   31.081202
H   40.681915   67.999855   35.671429
H    7.806687   85.022110   42.765266
H   11.206141   30.090769   78.493217
H   49.703068   72.753807   27.498802
H   59.292812   38.399773    9.029531
H   79.760834   84.221977   70.606384
H   10.299006   50.523289   29.028370
H   49.649979   53.567253   33.305634
H   30.783817   39.802990   40.771893
H   17.629078   50.869339    1.736155
H   82.145088   24.231359   26.763981
H   20.129850   99.187599   70.538338
H    2.809449   85.270096   49.165672
H   27.884892   46.411472   12.406937
H   35.077858   29.408745   72.037552
H   72.326859   23.870682   85.169914
H   76.788033   37.546730   19.879475
H   76.420822   67.436188   60.570187
H   65.642372   28.347250   54.938915
H   53.534657   71.994270   52.899658
H   50.536324   58.101891   97.592430
H   45.525131   74.922188   95.390022
H   39.009541   58.633850   39.455345
H   77.921600   55.570610   14.919783
H   81.877853   26.043791   78.700363
H   10.599229   24.896820   39.764244
H   60.264488   41.234180   59.861012
H    2.400577   52.581821   99.733955
