100
TIME:    7.248, STEP:  7248
H   27.169294   57.344460   92.510269
H    0.305332   97.621346   35.114620
H    4.357252   95.354591   38.260746
H   82.693161   34.033722   42.875477
H   30.250628   53.716503   69.182281
H   15.620053   93.355797   96.539627
H   73.101334   50.758175   57.256191
H   50.207787   15.646548   42.706886
H   75.458199   89.427658   43.851383
H   76.790993   20.455538   91.506264
H   26.063721   57.881550   41.585388
H   79.205643   86.995544   77.008675
H   81.568764   23.273426    4.820637
H   96.204033   82.735512    8.815350
H   68.640205   22.605736    2.347357
H   10.096676   77.792358   31.394014
H   41.266121   61.368313   33.202389
H   56.062824   42.151245   48.272545
H   58.152218   82.415970   45.213840
H   97.245529   51.891598    9.810099
H   34.170120   34.656166   60.517239
H   57.253159   53.705811    2.044138
H   88.970955   35.674706   24.976984
H   45.614479   23.535372   68.775162
H   70.354317   11.356796   90.068031
H   13.432369   12.430794    8.813302
H   37.075657   41.186440   43.780727
H   20.976826   94.751854    6.351791
H   68.771599    6.687504   14.555395
H   78.913925   11.451851   59.583702
H    1.308660   71.997131   35.940315
H   23.400265   52.254864   28.280373
H   80.896736   38.183739   50.754036
H   84.346718    9.486754   66.404572
H    0.572821   10.894691   66.027237
H    2.694247   53.123413   96.639168
H   74.975967   39.098755   79.579437
H   64.417061   26.310101   33.912468
H   39.132343   23.494524   41.926987
H   80.512489   33.649624    8.291646
H   39.901688    4.881220   13.104450
H   89.391899   70.026184   49.982525
H   73.663544    6.966507   25.004704
H   16.535046   34.299950   89.406609
H   27.945827   45.922062   76.340889
H   84.566307    1.161171   12.607046
H   98.359665   19.009045   95.037560
H   56.630001   70.022034   17.042675
H   76.895271   32.170574   55.349922
H   77.912842   41.052631   76.752632
H   43.003910   69.895859   29.830620
H   57.381512   91.178024   98.250519
H   59.219227   64.035095   81.916664
H    8.847237   88.944992   51.650162
H   63.698410   93.784691   61.998417
H    2.623134    4.909531   45.887772
H   55.742451   80.408333   45.332619
H   86.354904   92.402931   26.864092
H   61.910255   45.020733   55.056221
H   80.725243   84.893463   57.460228
H   16.909834   41.505783   49.284172
H   41.672249   60.478714   67.406738
H   66.128548   12.692288   36.453339
H   40.746983   81.246002   30.356236
H   20.007576   81.958923   70.543602
H   56.091309   81.953850   74.742172
H    6.047541   98.945648   16.995623
H   79.696739   32.058891   12.698913
H   18.140625   28.991272    5.649833
H   77.227882   12.693716   86.470703
H   91.875023    2.247798   75.206306
H   76.411797   10.937528   87.321785
H   34.408554   59.795460   75.911682
H   70.649223   90.693604   72.502136
H   11.615079   38.987476   50.849888
H   97.002357   72.102684    8.231515
H   25.056065   98.466988   19.285585
H   72.504547   76.792061   14.718705
H    9.082196   32.229061   98.544762
H   44.075912   14.186416   96.499611
H   52.706429    4.266244   13.185853
H   85.180641   91.475052   80.636238
H   76.328026   28.330236   20.205734
H   48.799786   32.386593    1.425089
H   99.412247   95.515953   45.140007
H   84.478195   75.286682   45.106400
H   51.232319   76.363823   69.155952
H   72.596794   25.081335   20.427414
H    6.099091   90.615593   68.911507
H   25.517908   11.072384   83.314972
H   20.640766   64.801125   86.526291
H   14.577501   40.597885   71.627098
H   50.064213   44.996014   79.503548
H   47.757271   52.900597   15.520272
H   31.279907    0.497094   82.638092
H   92.576645    9.516660   93.080116
H   87.290428   83.627686   20.349873
H   24.287004   45.089916   33.378609
H   63.435051   68.100822   37.941586
H   89.412651   92.639206   99.516815
