100
TIME:    2.200, STEP:  2200
H   68.545319   20.270004   97.131851
H   40.073280   24.024862   16.775229
H   17.570837   32.180283   97.510750
H   81.845871   42.010826   19.573288
H   75.465851   49.097218    6.054274
H   93.902596   98.824669   96.618797
H   37.668453    9.891392   62.495720
H   46.970634   78.929565    6.196653
H   99.547737   74.772324   61.606205
H   14.720346   47.972099   93.838341
H   95.616394   54.764240   27.834669
H   71.874115   33.965134   36.330147
H    3.321023   28.604485    6.467251
H   46.150230   98.294838   24.660892
H    7.259762   73.514435   45.020836
H   13.067219   19.309212   50.422623
H   47.190735   27.486519   73.657806
H   48.157639   87.714516   23.275696
H   79.529411   70.647568   79.266541
H   33.246552   59.092449   66.118874
H   33.725510   37.200642   97.532654
H   73.296494   47.004517   31.927933
H   56.370857   76.729759   69.405563
H   14.637718   63.067265   43.683395
H   50.898918   11.694435   52.793869
H   36.571400   62.053402   82.965797
H   72.371101   51.026867   43.622944
H   46.911964   59.128277   39.492077
H   59.007706   48.693001   53.176781
H   85.351540   36.390182   58.282162
H    2.643811   19.331244   35.325764
H    4.666589   91.729515   95.599068
H   25.322311    7.520154   95.990326
H   71.056358   72.105911   79.068863
H   26.086472   92.616882   58.691757
H   63.836010   57.306652   13.077043
H   90.807709   23.967768   81.816772
H   73.059807   18.687832   77.688850
H   52.211609   33.481079   31.115492
H   55.977345    6.226190   11.125193
H   84.895470   31.671110   94.175583
H   33.897736   10.594026    6.159591
H   30.190725   76.692688   60.380592
H   38.873848   49.643456   95.838547
H   65.820824   45.089123   44.371315
H   49.704525    4.878407   92.103249
H   58.917210   44.481598   46.574135
H   56.356907   18.034410    4.701459
H   29.338255   50.244701   56.716911
H   72.027916   64.234688   29.793736
H   43.376774   57.247826   76.613297
H   12.048887   59.596378   29.636005
H   54.516327   34.765076   75.098015
H   25.746609   71.314247   28.895685
H   65.619354   51.369289   19.074049
H   96.318924   10.219854   17.733612
H   35.721981   26.067177   65.225746
H   62.240326   69.124710   56.888992
H   63.784943   31.724779   42.588264
H   13.842165   96.886414    1.037301
H   98.477921   76.260811   42.866016
H   20.830059    7.466314   95.810425
H   23.457050   57.129921   82.629562
H   94.109192   53.761948   67.413582
H   19.643135   85.133850    0.442520
H   66.195778   32.904427   76.266518
H   11.058252   24.423056   73.278152
H   28.396873   43.357971   71.375320
H   66.551628   91.708366   22.251884
H   74.954407   58.798111   97.100555
H   52.172859   45.711922   35.761074
H   92.567322   78.511292   17.694990
H   63.547577    9.486446    5.336475
H   81.774834   10.158650   72.456017
H   68.240868   31.774038   68.172836
H   77.668907   48.572617   47.896992
H   66.701630   35.865425   29.957785
H   35.340328    6.867592   35.938000
H   67.008850   47.056637   42.223602
H   91.633125   89.137421   31.389137
H   53.934414   52.041668   11.477837
H    6.391037   58.595230    2.814424
H   56.996975   43.977539   39.438938
H    1.509425    0.418433   62.484161
H   45.208099   11.272156   34.487030
H    0.655040   89.864235   94.557808
H   14.087759   43.395004   28.447905
H   91.370819   29.157074   72.868904
H    1.337781   71.679771   10.200899
H   71.829605   18.760635    2.863605
H   14.055725   92.225479   79.921707
H   41.066441   60.964832   75.441093
H   26.439850   93.552841   89.112930
H   59.867023   46.679455   75.152504
H   18.554623   52.667732   66.640373
H   75.632553    8.856133   53.816132
H   87.976944   93.934151   10.665411
H   14.942786   34.969360   20.834953
H    3.910572   46.333630   60.765877
H   75.868759   22.194172   85.794098
