100
TIME:    3.446, STEP:  3446
H   84.283600    6.005611   95.991104
H    5.412944   91.581161   95.372696
H   38.988365   21.822857   82.890175
H   82.055008   90.674248   51.276974
H   64.305542   48.969601   72.269577
H   74.585945   97.474785   20.014677
H   72.364281   94.027428   59.934624
H   49.037491   86.724808   91.793358
H   68.918678   54.974564   83.173836
H   80.671104   65.862816   42.632431
H   79.716507    4.899917    7.813673
H   24.316040   96.421036   47.638695
H   24.062687   53.219635   82.624413
H   84.455437   94.454323   19.481853
H   22.417381   62.216660   85.126503
H   62.968323   10.329374   46.993507
H   47.000374    9.897624   87.091324
H   74.780724   27.121834   80.076843
H   98.941124   22.916788   44.910145
H   99.679985   32.636623   50.952324
H   59.786194   13.156715   63.709587
H   92.751724   48.658600   25.819519
H   39.734962   66.596123   33.757217
H   98.870735   78.011047   51.144314
H    6.335956   12.873756   61.989296
H   30.857206   24.930685   66.176491
H   64.927475   99.229935   68.346962
H   41.778278   17.287323   80.678703
H   86.100449   61.740005   94.278664
H   33.127396    5.551181   57.335571
H   51.678158   31.065302   36.742393
H   83.339821   57.299820   80.250587
H   13.088673   16.356567    8.239850
H   23.703262   57.917397   26.575977
H   95.112167   98.428795   34.565468
H   72.172935   55.187283    8.791936
H   10.315591   78.335434   79.996696
H   21.562912   95.884499   65.614845
H   99.614319    6.335794   10.369429
H   38.618801   89.580185    9.157957
H   99.742661   74.422958   23.531965
H   21.914330   66.518494   64.697189
H   40.923252   84.164581   50.381252
H   59.308533   70.525665   17.665899
H   57.739819   95.930908   50.994564
H   33.629498   28.643970   97.160561
H   68.656540   12.242719   58.542473
H   56.423450   30.863062   81.796898
H   65.757065   47.051239    7.010818
H   98.151024   83.190102   42.646160
H   43.281712   36.954803   89.750900
H   72.601974   43.976349   47.839207
H   80.357735   41.989807    2.730489
H   96.894188   50.983849   83.879425
H   66.417618   60.583244   29.656710
H   97.877945    8.909689   75.316833
H   14.713975   90.113640   83.730659
H   69.459953   51.455597   24.794907
H   62.054306   84.370285   46.932285
H   31.618355   92.658478   65.598152
H   77.076851   18.317810   45.717991
H   76.609337   95.867203   39.434364
H    8.008798   72.134209   97.167900
H   79.670647   60.539886   33.581882
H   69.101860   85.617805   16.480097
H   89.652046   70.961983   49.938217
H   11.089283   67.497375   33.435955
H   42.327065   14.617511   30.941328
H   28.650185    2.178746   44.106045
H    0.202900   21.466024   94.476837
H   12.605822   60.934029   20.811340
H   89.828781   37.159210    8.921294
H   82.305588   47.852032   73.394035
H   54.354244   31.309315   98.405052
H   28.317499   33.551098   62.628208
H    7.121128   28.428556   64.056061
H   79.829811   27.869942   51.993656
H   93.879669   25.394648    4.748474
H   26.761244   43.396740   56.131210
H   30.527107   21.276749   24.045120
H   78.312302   64.932114   85.948441
H   99.880875   66.732559   98.624634
H   35.827297   64.777161   58.114353
H   87.229324    7.040414   48.677429
H   84.537369   33.335308   13.701271
H   71.984070   35.631325   81.083832
H   97.305260   52.800652   87.861816
H   11.426249   29.399109   59.905418
H   27.198444    2.304918    0.006972
H   61.666790   67.499588   47.402802
H   65.047119   59.504292    6.235024
H   33.262367   54.663658   99.187645
H    6.349818   30.914152   85.488914
H   80.297005   22.257618   59.163536
H   97.009834   41.058285   95.273125
H   78.547043   59.652351   89.458397
H   89.075348   65.439476   39.007225
H   19.515829   45.578308    0.897429
H   44.553856   51.704647   56.399109
H   53.254200   90.204048   65.776535
