100
TIME:    1.576, STEP:  1576
H   10.744131   77.494125   97.703140
H   57.430946   90.193199   77.413872
H    6.844821   87.288155    4.835093
H   81.741135   67.718834   53.778355
H   81.054962   99.080879   22.972313
H    3.577446   99.500694   34.822117
H   70.370918   67.757881   13.698112
H   96.015800   24.946194   63.491982
H   14.886909   34.767502    0.882703
H   31.770945   39.012383   69.406212
H   53.659348   29.656086   87.941101
H   95.687347    2.687566   80.747871
H   43.012741   66.357170   68.486595
H   77.047447    0.218230   77.174797
H   99.669289   29.252213   75.016525
H   38.157288   73.888359    2.219474
H   97.359436   86.220383   16.846426
H   34.822800   18.059998   44.909470
H   69.807976   44.469452   46.391407
H   50.056732   72.344589   23.634012
H   70.754562   99.320862   14.469322
H   13.465102   46.180077   85.061562
H   64.702156   81.804710   87.258347
H   72.614037   55.583378   90.026550
H   73.217278   61.182350   48.190231
H   39.432606   80.648361   41.453941
H   26.178185   76.965775   31.240255
H   99.564224   30.002056   18.866148
H   45.439590   92.079285   82.674339
H   61.424053   51.834030    8.676345
H   78.097115   63.372681   84.701416
H   65.266785    8.970790   53.365852
H   81.369339   53.174400   39.775482
H   44.691368   29.291634    5.357360
H   41.597878   39.786720   20.696274
H    9.581609    8.286440   15.221757
H   30.958248   46.820168   32.647831
H   98.853508   30.108852   33.655270
H   79.869980   46.865044   91.074554
H   14.752199   64.644356   62.031681
H   27.539124   10.259673   79.474411
H   89.979279   82.589821   76.843277
H   24.815847   72.950745   15.309783
H   78.721260   39.184105   34.827152
H   19.949566   69.708023   90.972366
H   57.754940   92.976570   89.570534
H   52.721180   10.756207   41.090034
H   56.323582   11.609789   66.091881
H   11.099851    1.925876   81.607468
H   58.943554   54.737125   73.436485
H   43.424381   17.490934   70.033951
H   81.723900   17.497686   70.601425
H   41.571869   31.146912   11.337555
H   40.195461   81.492714    1.361908
H   15.294069   96.665207   13.779604
H   95.538162   10.875647   38.976044
H   96.164032   44.072304    5.878130
H    8.704958   28.054070   72.961258
H   14.573151    5.357888   90.492981
H   55.017887   48.925198   18.784386
H   59.116100    5.281642   91.518730
H   42.975830   13.275610   24.045174
H   81.132309   99.681435   25.438576
H   51.261093   50.367538   84.352303
H   94.875725   34.971401   42.331112
H    4.529180   63.925423   39.370770
H   61.123215    2.850336   43.152172
H   71.500633    7.669833   41.544514
H   35.450089   36.545013   61.389946
H   62.310509   27.410887   98.414520
H   71.987068   88.169411   43.245792
H   44.018467   99.220520   72.009911
H    4.233095   40.350338   21.337330
H   95.504814   49.647865    9.542229
H   38.157066   30.886160   20.869537
H   62.919781    8.579016   89.884911
H   10.045187   89.949936   18.920004
H    6.023676   47.670464    1.475396
H   37.094940   48.885593   35.262535
H   22.235641   23.121244   85.147438
H   41.723110   45.586102   74.182579
H   59.572964   54.520035   54.993484
H   17.516140   33.561035   80.006134
H   58.585835   47.021954   19.479774
H   75.591156   50.305336   94.977020
H   15.017895   66.946022   51.225533
H   72.412193   88.764877   98.692749
H   81.325653   79.116302   79.361214
H   88.388374    6.423413   15.305605
H   26.998577   44.435318   80.555183
H   88.518929   58.529720   66.743973
H   94.894997   14.036276   63.548943
H   86.403557   74.852646   40.839005
H   99.553474    8.828252   33.080566
H   29.344845    8.560463   52.301018
H   24.092758   33.495842   86.046356
H   37.506546   58.123852   46.552063
H   12.651679   29.656372   30.820610
H   33.634880   43.643810   13.037426
H   37.116318   38.222134   45.894722
