100
TIME:    1.882, STEP:  1882
H   90.050690   49.432297   97.422989
H   48.919014    6.783424   96.716301
H   12.104727    9.302913    1.242751
H   81.792496   55.112022   37.004292
H   78.314148   23.608112   14.676195
H   98.832527   99.169182   65.127403
H   54.333660   88.419044   37.627708
H   71.964806   51.418163   35.395134
H    7.364845    5.346727   81.622215
H   23.409594   43.406090   81.387352
H   25.195969   41.968739   58.464947
H   84.009705   18.025347   58.966103
H   23.548717   47.843834   38.073486
H   61.895927   99.275002    0.460089
H    3.391550    1.919709   60.307991
H   25.853973   47.123093   76.819107
H   72.757477    6.456673   44.705780
H   41.362000    3.178874   34.301071
H   74.575218   57.307388   62.511784
H   41.813278   65.845078   44.467934
H   52.596085   68.859070    6.164001
H   42.806339   46.583961   59.007034
H   60.616615   79.316032   78.503616
H   44.183342   59.253361   67.301605
H   62.272697   36.914238   50.447784
H   38.029514   71.529434   12.772727
H   99.791420   64.246902   37.312534
H   73.743607   44.285107   28.980780
H   52.093185   19.841768   68.209190
H   73.157722   44.260605   33.001705
H   90.134285   90.813507   60.487339
H   84.587891    0.516895   25.037880
H    2.922550   30.785702   67.342377
H   57.620354    1.248774   92.466049
H   33.991768   16.655556   39.328674
H   36.187634   32.324612   14.170022
H   60.306480   35.614113   56.759525
H   86.204674   24.508160   55.247936
H   66.114548   40.332848   61.747192
H   85.929909   35.996593   86.106216
H    6.628159   20.759512   86.683640
H   62.477753   96.321907   91.219711
H   27.451605   74.785736   37.412254
H   59.180702   44.313210   64.745041
H   93.406120   57.634731   17.157949
H   53.807140   98.813057   90.812538
H   55.952259   27.263941   43.704781
H   56.339924   14.760324   85.025444
H   20.043684   76.581688   69.402206
H   65.360863   59.394642   52.034229
H   43.401035   87.948296   73.260361
H   96.595268   89.103546   50.513004
H   47.919632   32.921204   93.565849
H   33.109966   76.501350   14.864061
H   90.933777   23.490801   16.376173
H   95.921036   10.554056   28.559082
H   15.563107   35.242867   34.981392
H   85.919525   99.155563   65.079666
H   38.705856   18.287561   67.002289
H   34.825977   72.445404   10.081414
H   78.418533   91.050606   67.659172
H   32.115295   10.426821   10.198937
H    1.887004   78.814827    4.445579
H   72.273865   52.032104   76.045815
H    7.021079   10.531425   70.828949
H   85.731117   48.713203   57.463879
H   36.572617   13.429111   57.925488
H   50.363213   25.171116   56.173084
H   50.701996   14.557800   42.197243
H   68.510559   42.802521   97.770172
H   62.270485   67.349495   39.575809
H   18.787889   89.065033   94.412682
H   84.281433   25.215160   13.490757
H   88.771843   30.282507   91.355705
H   52.909370   31.321562   44.066631
H   70.152702   28.190779   69.293785
H   37.828278   63.428886   24.332762
H   20.400112   27.660906   18.375118
H   51.763199   47.989109   38.675713
H    7.228540    6.455740   58.785194
H   47.711346   48.751812   92.471794
H   82.531815   56.518448   29.406206
H   36.876934   38.669128    9.151051
H   79.635139   73.206764   91.529999
H   60.691772   31.163994   65.313660
H    7.974424   78.184761   72.475014
H   92.849236   66.516190   13.284374
H   86.251648   54.617065   76.178169
H   94.738472   89.385796   12.802336
H   99.943802   31.844849   91.495094
H    1.041713   75.053207   73.206131
H   17.536226   37.049801   69.380577
H    6.037163   84.022934   64.511795
H   29.130161   27.389448   53.711380
H   24.053486   81.151672   59.332817
H   49.367081   21.413004   70.241150
H   13.218259   75.684669   28.953888
H   13.775203   32.261780   25.923798
H   19.058708   44.962856   87.404678
H   56.119919   30.361797   16.422180
