100
TIME:    8.459, STEP:  8459
H   45.274162   46.290398   91.401566
H   66.859482   63.246601   11.471622
H   25.173365   82.478546   24.044209
H   82.896423   84.139091   76.496895
H   19.399191   50.783405   36.346176
H   96.840210   92.043831   16.468769
H    9.634570   32.530205   51.957981
H   55.025574   20.413279   31.516472
H   45.689507   72.994278   67.624542
H   43.714668   37.843708   38.924782
H   13.419449    6.608877   24.936152
H   32.984978   47.696468   90.808586
H    4.347263   49.973846   84.474823
H   36.241646   79.002876    0.972722
H   83.349007   14.433243   44.106949
H   61.405289   71.873863   30.870338
H   43.884621   41.467419   43.444496
H   81.953888   83.224129    6.296530
H   77.015793   33.218937    9.015819
H   64.612686   26.177866   92.260689
H   62.307671   14.096699   27.652803
H   73.352913   55.313431   98.916321
H   72.802361   25.828619   90.327728
H   33.094551   38.022430   78.835571
H   27.041492   15.318802   99.011574
H    7.722330   76.732162   94.852371
H   32.649597   90.846085   67.810410
H   18.796118   51.277225   46.382828
H   95.103310   16.558783   57.310356
H   25.348354   81.479019   55.854675
H   48.971386   80.590294   40.129921
H   99.863853   18.799732   16.172035
H   66.198624   49.581413   59.850479
H   35.515564   98.505920   15.387232
H   70.434532   19.204979   39.705158
H    7.964254   47.976143   92.832619
H   91.127251   94.747322   75.001488
H   14.366703    4.146503   19.369804
H   88.014610   97.111473   24.572201
H   66.449280   20.279829    3.570668
H   57.138641   46.429977   41.634853
H   87.335373   74.775131   11.808133
H   84.085358   14.230825   12.476318
H   39.208004   54.629387    7.811580
H   22.900532   98.146492   79.970512
H   68.933586   24.254826   17.526918
H    7.825570   84.866951    6.664540
H   56.703915   82.494949   91.972557
H   12.296913   31.875710    7.040121
H    3.338196   59.484829   92.079063
H   42.920757   52.981804   42.598404
H   16.236002   78.806900   18.755699
H   84.333122   71.056885   11.586557
H   80.799957   69.191589    5.089247
H   67.276711   99.910629   72.292679
H    4.131433    3.635676    4.662476
H   32.515724   45.465691   60.508751
H   96.181580   78.038933   95.669701
H   57.419231   96.190834   62.089638
H    0.813060   77.975403   23.016502
H   93.300430   85.188477   54.864918
H   98.691460   49.206894   12.611128
H   48.342648   30.056440   53.411438
H   23.903774   87.842789   97.475494
H   68.077179   85.237854   83.318542
H   81.699257   21.751244   46.346455
H    8.886808   40.811543   75.462448
H   96.044617    1.315985   70.591721
H   78.498077   41.976540   29.698921
H    1.822667   73.516922   83.902206
H   53.418941   19.850040   60.682289
H   76.688705   70.727928   76.086655
H   55.448700   99.895409   44.862156
H   43.991840   14.050167    0.549173
H   69.949753   40.770641   42.668644
H   25.632616   49.716064   26.746336
H   35.040848   93.651978   40.763985
H   29.396650   97.611336   81.603638
H   67.151329   28.671970   12.058689
H   84.688347   48.217918   92.170891
H   76.414207   16.794596   85.565811
H   76.052200   99.328369   79.323662
H   52.925705   48.582554   35.535664
H   32.115387   36.014503   90.818626
H   40.447693   19.759937   27.747887
H   56.610325   19.766232   29.201981
H   32.112339   88.313942   26.901054
H   92.073021   28.176208    7.871334
H   31.234238   23.188540   59.007088
H   18.449320   61.252068   26.606359
H   70.199821   30.192432   12.100730
H    4.179239   31.676605   94.706612
H   27.691578   81.329369   73.152039
H   64.794266   26.370594   97.176216
H   10.339268   92.023514   10.465679
H   92.600281   61.695190   30.530754
H   91.166985   53.123329   50.703987
H   21.949488    5.011976    9.065924
H    5.745872   73.330208   36.507740
H   64.630798   61.559277   82.857941
