100
TIME:    7.724, STEP:  7724
H   94.979973   13.693440   92.074478
H   87.159012   23.415783   65.129593
H   12.539431   29.598957   32.671726
H   82.773056   14.421497   16.783550
H   25.985323   91.870003   56.275604
H    8.237935   92.840111   43.679840
H   48.154606   82.899261   94.480011
H   12.795128   56.825176   99.001091
H   63.757210   43.662338   13.888218
H   63.789894   27.290194   10.144424
H   81.787369   77.034561   95.734955
H   61.039825   10.854700   43.125923
H   51.215919   94.462814   57.516239
H   72.635002   81.268349   45.040478
H   74.421700   80.087082   79.454132
H   90.957367   36.159790   91.881134
H    2.988841   92.853912   76.534546
H   66.241379   18.988953   31.774197
H   65.565063    2.382846   70.290894
H   84.418747   41.784878   42.218422
H    5.923599   87.268555   47.599667
H    2.887741   54.337708   61.508331
H   82.615669   31.803522   11.357009
H    1.386566   29.229708   33.422104
H   53.329414   73.608932   93.583412
H   11.188046   98.399948   64.020729
H   96.029526   21.398870   53.226498
H   80.812737   16.969900   22.086218
H   79.121635   49.873524   92.055077
H   97.166306   99.670090   97.424889
H   20.042910   14.681993   98.280785
H   53.455318   39.104870   84.214714
H   14.424757    3.358206   93.635872
H    4.458682   65.864204   46.350922
H   88.726540   74.854851   94.985550
H   44.071552   90.405334   95.142952
H   20.631439   21.666037   17.086149
H   44.744652   17.597912   67.501442
H   19.038746   13.124514   95.799706
H   35.679153   89.088226   45.743103
H    7.371254   21.212576   24.318571
H   49.277336   71.892822   74.283043
H   77.759979    9.821846   59.384983
H   86.140213   42.289452   35.947285
H   86.655861   27.143101   17.073582
H   78.421654   10.238616   14.540869
H    2.079679   44.895943   99.606102
H   56.659054   74.924683   46.494884
H   90.811531   92.748909   36.360329
H   87.906982   48.297657   43.470482
H   42.971226   23.941378   34.848694
H   80.514755   47.009205   67.004303
H   69.091652   66.795105   54.272987
H   97.824646   81.180649   72.655289
H   25.798820   35.499199   66.045807
H    3.215992    4.408825   29.683609
H   85.919983   66.673653   90.604042
H   50.910568   47.451088   14.602126
H   99.449287   65.135918   18.514473
H   49.313675   21.480167   43.921654
H   46.936749   19.370193   12.172841
H   24.778084   56.048172   45.868340
H   98.442451   80.210968    3.812592
H   73.433891   83.838959   17.431400
H   38.901596   43.941502   14.871417
H   26.850052   58.290398    2.887094
H   67.857483   15.401686   39.977520
H   46.816307   59.281303   35.454468
H   41.865814   94.788963   75.797607
H   86.895180   36.600613   85.461121
H   76.760338   69.861206   69.497444
H   37.214878   95.132225   22.212629
H    3.371344   36.251850   63.709316
H   60.169781   60.566334   44.219299
H   34.543335   39.688374   86.940643
H    8.255273    2.608246   76.201485
H   68.286827   57.269615   27.727221
H   94.867889   45.668514   41.007755
H   31.907026   30.830898    3.856165
H   20.732918   88.256218   55.491676
H   62.025093    9.190682   41.635834
H   20.899612   94.561905   40.814320
H    6.434571   36.290684   65.538773
H   81.547798   73.118530   57.948284
H   76.235428   65.736900   98.997948
H   73.525314   92.769165   78.161148
H   83.023277   41.754753   91.853401
H   80.252190   86.992004   15.492081
H   15.978749   64.112236   65.018440
H   83.433594   91.488785    0.332567
H   40.120625   90.505531   96.578537
H   49.796680   76.398117   80.698814
H   80.576843   59.279064   16.313356
H   93.760994   81.779015   47.616207
H   23.048904   57.861641   93.576447
H   31.892349   90.720154   68.494240
H   49.507347   10.944156   92.974113
H   23.368212   68.641502   23.822336
H   40.759392   70.156303   98.070534
H   18.979204   80.422531   53.663517
