100
TIME:    4.096, STEP:  4096
H   40.326080   46.397217   95.396011
H   87.354378   26.819689   36.371536
H   50.161232   68.586693   75.263069
H   82.164108   63.895073   15.646920
H   58.483551    1.069967   54.644913
H   64.509041   96.770592   84.386803
H   38.298962   37.919460   10.765542
H   97.948769   42.957577   32.112820
H   52.940437   92.479599   42.258572
H   62.907585   75.195854   68.086731
H   19.255081   31.053791   45.201817
H   99.505760   29.001764    1.371800
H   82.692947   13.896812   18.023026
H   52.270836   92.450844   68.948441
H   30.324677    4.156419   53.882526
H   36.833832   53.477959   93.037048
H   94.731087   52.888294   46.263390
H   88.666222   95.512016   57.541241
H    9.064934   50.186913   79.154968
H   82.164421   18.833063   95.207390
H   21.214264   48.448147   46.070045
H   55.067856   49.521484   70.466049
H   31.056526   61.309715   15.158378
H   38.478737   85.806763    2.867691
H   83.088043   61.327301   66.789711
H   27.874441    5.565487    5.249756
H    8.875799   72.212723   81.240639
H   86.933258   47.627136    2.161925
H    0.233917   20.713146   63.552040
H   58.051865   89.463432    9.009106
H   77.259621   89.351875   85.316460
H   24.380995   39.342896   20.076790
H   58.875156   68.799492   66.796982
H   51.167542   98.348877   99.194054
H   78.955399   49.293968   74.145370
H   28.695486    6.245438    6.551381
H   72.658066   54.531723   31.213980
H   94.697731   83.992561   11.485546
H   72.180542   92.173698   47.379204
H   77.395531   28.729206   60.300114
H   55.318985   96.729019   38.845684
H   63.495987   95.687958   95.235367
H   46.522083   88.062439   97.332634
H   17.801661   81.415863   81.219604
H    1.358391   70.282410    6.616199
H   25.243649   41.041737   99.798805
H   73.734665   47.592613   64.785362
H   56.458164   37.557434   22.015160
H   84.760361   93.219452   81.083649
H   11.782924   93.078560   97.185646
H   43.232121   74.201027   96.604385
H    4.191156   83.661316    5.166137
H   93.836586   45.758728   64.981575
H   81.838341   40.376320   12.561824
H   14.664415   17.551653   35.185062
H   98.691238    8.225332   53.189301
H   55.919231   71.358299   45.551186
H   21.059074   90.070732    8.051073
H   13.320082   11.834520   97.030678
H   88.725281   42.620739   47.110603
H   18.079359   88.089256   95.040016
H   53.539574   89.817093   10.022157
H   52.138538   27.779724   52.595451
H   24.304041   64.075836   15.932423
H   94.899132   33.702984   77.011589
H   49.721321   38.648445   88.371292
H   58.938858   89.972046   64.817184
H   97.426872   51.792130   62.015087
H   61.048027   55.473892    3.337611
H   13.371721   54.160614   93.108124
H   91.965263   16.707859   13.013145
H   36.233330   15.587073   56.512638
H   39.925064   15.702145   56.729271
H   40.042263   90.176476   59.783531
H   59.654385   34.478451   11.902396
H   22.488718   70.089073   20.321033
H   38.845161   71.533249   63.488865
H   24.417858   82.893532   40.647110
H   57.929230   41.487484   63.386383
H   98.649506   85.877129   68.047173
H   91.027451   71.656662   24.796980
H   48.653290   70.977554   44.272827
H   76.951607   75.627686   20.023754
H   31.948774   62.662666   89.310806
H   52.888351   92.676949   50.691116
H   57.025089   59.509422   26.222031
H   40.717308    5.540367   18.856749
H   21.887484   77.358650   53.146156
H   40.688095   66.113457   94.690804
H    4.196651   40.755775   70.637634
H   91.647766   94.604210   19.961832
H   81.358948    3.541848   11.574017
H   48.014992   50.418320   35.754498
H   43.122112   61.686859    2.991360
H   85.772499   82.834953   10.209102
H   32.234421   33.984016   55.885246
H   37.480804    2.741785    1.623941
H   21.901159   51.112671   90.493538
H   13.589195   54.506542    1.953079
H   93.629921   73.521614    3.158923
