100
TIME:    9.814, STEP:  9814
H   53.641022   22.031185   90.161026
H   29.436893   36.670704   96.908562
H   48.464497   79.962608    8.138180
H   83.123856   28.314470    2.223007
H    7.257410   59.392365   99.608925
H   75.833740   90.575859   50.659546
H   38.618282   24.026232   57.920757
H   48.525253   37.637394    7.104197
H   12.381020   42.715927   82.331535
H    6.701704   57.299503   91.978523
H   87.380585   61.128662   94.412834
H   81.268562   15.615383   94.358253
H   17.943588   67.959312   49.819099
H   69.150986   74.826393    4.088925
H   99.806831   93.397980   78.944115
H    6.922572   53.360641   18.392990
H   34.923592   31.090591   66.795486
H   10.933806   17.289452   59.323372
H   98.125641   90.061920   80.408463
H   28.109638   97.402069   84.515373
H   81.899551   79.203682   90.873596
H    3.258087   57.112213   83.525543
H   54.711159   14.813383   51.560867
H    7.195389   54.232147   78.201889
H   78.579819    7.860519    9.014130
H    1.330697   36.786789   67.341621
H   15.806412   34.520176   94.688766
H    4.465340   14.524053   91.170372
H   24.567257   39.494572   93.259598
H   77.305626   47.943100   63.573402
H    2.297151    2.096671   32.926651
H   85.419357   81.360474   90.732964
H   61.643707   50.443207   81.919579
H   92.766464   74.328178   58.302986
H   36.712532   16.612434   22.144423
H   25.751299   54.109600   88.573433
H   21.089630   45.125740   81.770218
H   58.359341   79.354988   14.988395
H   30.819736   67.586632   93.263283
H   38.824383   93.428619   10.179341
H   64.534042   92.925629   73.558067
H   73.143211   80.092422   80.974846
H   95.746429   22.360966   10.348722
H   52.695095   77.376869   40.293697
H    5.346076   44.666599   95.913788
H   51.449402   50.097851   23.031813
H   18.419872   58.561001   19.676420
H   56.786617   96.451019   75.811890
H   51.901138   19.655186   52.990875
H   31.778715   80.116875   97.337624
H   45.927937   22.398117   52.120895
H   82.089218   53.073303   29.808168
H   12.434702   78.913635   32.890259
H   49.419113   47.081398   64.880928
H   59.389687   18.656610   83.809021
H    5.819084    2.210348   58.535065
H   18.417534    6.367436   89.380440
H   95.285599   50.076057   60.769188
H   64.290230   53.448669   58.065228
H   11.396858   82.124969   84.477089
H   78.778931   22.175123   49.226147
H   50.599876   36.594742   51.304092
H   40.351559   37.623222   60.508865
H   16.949512   95.223999   60.692566
H   21.856705   77.015419    9.503423
H   98.460663   54.390556   26.465128
H    0.172352   87.657471   40.882641
H    2.445533   78.810310   35.368561
H   46.031334   44.614883   44.716465
H   29.342209   41.575481   81.028290
H   10.384817   27.651722   44.431221
H   65.106972   25.737694   75.407196
H   67.101257   32.869724   10.116711
H   14.167202   28.292572   20.038954
H   35.220284   42.765842   45.405613
H   57.669548   36.558010   35.571785
H   58.103462   76.374069   64.799095
H   93.051598    9.016136   56.441864
H   32.130333   24.691906   27.182261
H   18.237850   74.403999   75.436409
H    2.940811   30.812693   66.552849
H   77.729912    8.123895   65.963478
H   38.630486   71.243080   64.579773
H   25.336990   51.964676   67.059227
H   74.471664   34.995224   96.397156
H   25.421093   69.540459   23.297321
H   22.609789   89.794090   91.512489
H   13.863905   19.751406   93.826721
H   59.353275   47.744133   47.924934
H   98.648956    5.500153   75.042023
H   25.652639    3.358434   40.715843
H    4.435518   33.585617   20.522600
H   14.549699   21.983252   77.936272
H   92.647316    8.341596   93.304939
H   86.911880   70.652016   41.600105
H    4.517766    8.188509   60.543060
H   83.613365   30.882961   72.775833
H   19.334017   72.056061   81.858482
H   41.196587   79.181419   23.012005
H   48.795906   26.792381   52.326801
