100
TIME:    6.605, STEP:  6605
H   70.653152   16.310553   93.098953
H   18.061718   62.780888   94.571510
H   93.301498   49.093834   45.810619
H   82.585236   60.524506   78.120972
H   36.010666    2.177283   86.617142
H   25.593296   94.052406   32.861233
H    6.802879    7.338053    6.972744
H    0.746319   60.017353    1.743968
H   91.264366   51.249603   84.325859
H   94.353401   11.222374   66.330208
H   85.874023   32.008884    3.522837
H    3.744678   54.765095   22.777725
H   22.588028   62.172993   68.715508
H   28.040459   84.717415   59.884617
H   60.830330   80.041679   33.268101
H   35.951797   34.031654   84.768066
H   92.972206   18.840794   74.667549
H   42.312145   73.439804   70.560585
H   48.139683   55.442871   11.339976
H   14.568344   65.544716   66.031731
H   72.326660   98.667999   77.970741
H   95.608124   52.852219   56.801514
H   97.555931   40.904182   43.374298
H    5.357857   15.843233   16.528418
H   93.352242   62.351555   85.319313
H   16.437006   31.399101   69.311790
H   92.522270   67.916885   31.021002
H   75.230484   64.738777   85.099197
H   54.790352   48.349072   44.949707
H   54.257877   27.366295    8.467430
H   76.004875   14.339036   86.812431
H   82.801056   70.020065   87.806145
H   35.604229   85.229408   92.827515
H   57.178947   68.413895   93.493851
H   16.576126   59.578865   26.904528
H   46.798779    2.760334   98.660316
H   13.304791   62.646118   28.913366
H   90.996147   38.078876   88.538292
H   66.275177   37.503716    4.239055
H   41.076214   93.845047   57.703045
H   83.846954   82.816368   97.956642
H   43.580612   67.504654   17.157372
H   68.129913    3.109329   78.559746
H   57.590855   23.507406   26.537859
H   83.720650   71.290848   21.318071
H   92.866753   88.897110    9.994761
H   93.336227   84.039993   88.866188
H   56.592159   63.399338   77.257904
H   58.098167   85.423927   80.998581
H   64.412354   31.265574   21.709990
H   43.048061   31.973799   23.053394
H   26.127747   50.845200   40.459175
H   45.880627   60.306763   19.260149
H   23.736038   99.433380   23.276344
H   14.894924   37.435501   56.528561
H    1.822279    5.585904   67.777008
H   14.980950   98.961693   84.177849
H   34.233307   53.126915   43.426498
H   11.199912   17.848057    4.417459
H   23.157341   35.470600   75.748680
H   76.348961   71.407242   99.418991
H   64.493568   66.463669   96.497543
H   22.473494   56.569862   80.545776
H   96.592819   77.743332   47.815624
H   94.486008   33.313549   10.663741
H   95.592010   13.918865   36.722992
H   57.637100   76.713013   85.951126
H   24.113396   95.283730   81.959793
H   86.094307   75.193161   45.979282
H   64.197716   80.354912   87.824890
H   12.293486   45.997223   82.918068
H   29.354967   32.318039   40.209076
H   76.332672   91.596741   92.394836
H   84.807076   31.389294   10.707170
H   80.624016   38.058033    2.101416
H   81.804497   30.890923   51.496017
H   66.657806   54.121952    7.882278
H   42.295238   18.835104   79.209618
H   78.246162   34.117756   91.372627
H   75.609756   49.214302   51.894493
H   40.122375   97.613419   74.754562
H   36.930923   87.305206   34.430393
H   35.656349   17.576941   58.971062
H    4.563561   77.363182   60.151470
H   30.721037   35.738792    7.471710
H   99.273788   51.668076    0.454309
H    8.287813   23.115486   38.495323
H   62.255577   76.535706   27.094261
H   92.754745   26.416101   74.170418
H   82.368210   37.528828   60.327644
H   94.326439   30.083233   72.947311
H   67.002014   92.238800   59.374512
H    8.846728   25.701893   29.779367
H   85.614601   13.890532   72.164017
H   42.396385   58.094849   67.862122
H   39.467529   34.906708   26.292297
H   38.328178   46.727005   57.329819
H   25.528147   13.275006   46.285507
H   94.066246   65.324196   91.798744
H   49.472218    9.140335   61.460804
