100
TIME:    2.403, STEP:  2403
H   54.817047    1.654056   96.945999
H   34.426476   35.031387   29.580435
H   21.060209   46.785156   95.128746
H   81.879944   33.647484    8.445908
H   73.647598   65.368561    0.550343
H   90.755501   98.604744   16.722738
H   27.029610   23.599358   78.370583
H   31.015236   96.492584   87.558403
H   94.557610   55.254761   48.827328
H    9.173437   50.886879    1.786925
H   76.733826   62.932438    8.280710
H   64.127182   44.140533   21.880693
H   90.407661   16.322762   86.290245
H   36.098732   97.669136   40.109844
H    9.729214   55.381470   35.262054
H    4.904515    1.553831   33.572037
H   30.869827   40.911232   92.140793
H   52.495735   77.842674   16.237324
H   82.691994   79.162689   89.962326
H   27.777855   54.782230   79.940071
H   21.679199   16.990780   92.022141
H   92.758301   47.274002   14.640594
H   53.660515   75.078773   63.597687
H   95.776749   65.501923   28.606148
H   43.638298   95.594574   54.291527
H   35.640591   56.005466   63.937653
H   54.866127   42.587635   47.651287
H   29.784048   68.603630   46.202885
H   63.421692   67.110939   43.580620
H   93.135643   31.365982   74.420311
H   10.630158   37.535992   19.262886
H   17.483894   86.119881   76.806328
H   39.621716   92.667778   14.278172
H   79.633430   53.502121   70.516571
H   21.039814   77.271698   71.053352
H   81.485764   73.253410   12.379323
H   10.278321   16.532911   97.812439
H   64.668587   14.972340   92.014946
H   43.642281   29.058317   11.443827
H   36.857815   87.222435   27.096853
H   71.021614   38.635952   98.958176
H   15.653259   19.705193   15.696474
H   31.939283   77.910019   75.043938
H   25.911032   53.046097   15.686934
H   48.212734   37.080448   61.742287
H   47.085560    8.750324   92.927193
H   60.504696   55.521210   48.524033
H   56.367748   20.124472   17.261909
H   35.271584   33.432835   48.618408
H   76.283928   67.322929   15.596188
H   43.361286   37.649727   78.753693
H   21.913759   40.758724   16.308865
H   58.727425   35.942139   63.308708
H   21.046101   68.002983   37.853485
H   49.458122   69.165726   20.796278
H   96.572922   10.006512   10.823013
H   48.590687   20.209740   84.532677
H   47.124359   49.954071   51.660355
H   79.796074   40.301876   27.003271
H    0.446580   12.489927   95.263557
H   11.283474   66.819527   27.039165
H   13.625969    5.576431   86.626236
H   37.226658   43.287041   68.703049
H    8.048632   54.866219   61.902477
H   27.700596   68.921356   19.347548
H   53.725105   22.812660   88.269463
H   94.770912   31.441294   83.078751
H   14.374290   54.967529   81.079895
H   76.668175   77.122078    9.519668
H   79.067932   69.008369   96.673096
H   45.726891   31.900011   33.324863
H   75.828247   71.774155   32.557762
H   50.311813   99.445702    0.131141
H   77.308189   97.312378   60.391121
H   78.029076   32.063053   83.561386
H   82.466988   61.583809   34.238415
H   85.131958   18.270487   33.548267
H   44.877636   93.594185   47.149525
H   76.744400   46.460361   44.489449
H   81.677650   78.082321   13.900506
H   57.907001   54.141796   23.610249
H   21.622917   59.920975   85.839821
H   69.840195   47.366241   58.773746
H   15.474360   17.789400   43.942322
H   35.323868   98.574295   14.808419
H   95.983765   97.320000    8.654840
H   27.645666   28.635254   38.127701
H   94.638718   12.904387   70.756386
H    5.551008   60.376869    8.540234
H   53.881618   10.408134   10.120088
H   22.363312    3.187399   84.208694
H   56.087933   76.229790   79.309914
H   39.464649   99.636398    4.817548
H   79.487129   58.993702   88.840508
H   15.044342   34.483658   71.305260
H   92.399506    0.840108   43.330978
H   71.863571    5.583823   98.990547
H   15.688130   36.697784   17.586414
H   94.240227   47.208683   43.761963
H   88.475723   16.980247   66.242462
