100
TIME:    4.578, STEP:  4578
H    7.731255    2.195479   94.954727
H   74.042305   52.940033   66.764648
H   58.446342    3.264120   69.607277
H   82.245010   44.037285   89.227180
H   54.166321   39.704391   41.575546
H   57.033199   96.248405   32.120586
H   13.037848   70.467117   48.458569
H   60.064522   84.657074   87.857033
H   41.091957   46.137405   11.917702
H   49.735252   82.116661   86.958984
H   74.420624   50.448231   98.773697
H   81.111565   53.162071   67.062019
H   51.935440   84.749123   70.128906
H   28.404995   90.965187    5.627048
H   36.186928   61.101929   30.711533
H   17.452721   11.320507   53.027283
H   55.971626   84.769791   90.141747
H   98.965889   72.066643   40.829052
H   16.572281   70.407593    4.550263
H   69.175957    8.597109   28.024118
H   92.611717    0.462226   32.989647
H    1.277664   50.161346   29.419266
H   24.621132   57.389641    1.367328
H   93.695663   91.587585   67.071945
H   65.848541   23.101059   70.349403
H   25.677214   91.318085   59.923100
H   67.313774   52.176250   90.801796
H   46.263172   70.125275   18.095163
H   10.715257   64.443932   40.767067
H   76.534317   77.534050   47.326180
H   96.227486   32.573917   47.182152
H   54.814892   26.027145   75.455666
H   92.825172   33.533531   10.219350
H   71.532806   54.176331   78.887627
H   66.974533   12.858524    3.497695
H   70.595413   43.997517    5.034928
H   18.889112   36.880356   69.193832
H   74.773750   75.174232   45.497646
H   51.835140   81.671135    0.670448
H   31.997335   83.606407   98.221497
H   22.377659   13.267056   50.201397
H   20.176498   17.320646   17.879610
H   50.673832   90.952850   32.147934
H   87.023056   89.491364   28.347654
H   59.547169   51.265526   47.862690
H   19.025219   50.235157    1.757917
H   77.500290   73.804893   69.411491
H   56.483906   42.521881   51.838615
H   98.852036   53.298931   61.857956
H   21.892010    0.411437   63.471596
H   43.195347   27.667439    1.686207
H   27.614153   38.935101   73.525513
H    3.832814   48.553528   36.985897
H   70.673851   32.510429   33.830040
H   76.287659   59.793583   39.285328
H   99.294327    7.718111   36.780884
H   86.477188   57.450493   91.393257
H   85.168350   44.552269   95.635605
H   51.333038   32.201416   60.028603
H   56.916866   79.668671   33.401375
H   48.484680   65.672020   57.457954
H   36.432457   85.330704   88.213959
H   84.861092   94.888229   19.543266
H   57.403603   66.701477    2.844669
H   14.030328   95.206512   21.898439
H   20.111259   14.686750   16.870413
H   20.267096    6.636957   88.087570
H   64.131981   79.357681   85.057472
H   85.069046   20.840439   73.109314
H   23.136972   78.403320   92.093170
H   76.660057   83.912598    7.230546
H   96.490509   99.589844   91.801445
H    8.496901   91.860512   44.369637
H   29.429379   59.675861   31.144188
H   82.894661   35.166119   48.441738
H   33.884880    0.979037   87.888168
H   82.607956   29.755428   72.013008
H   47.063091   51.377010   67.267128
H   81.044197   40.071697   68.763115
H   75.011383   59.627460   26.522331
H    0.456372   76.643173   53.605022
H   84.818092   74.125381    3.967592
H    7.442309   83.679626   65.930420
H   65.107727    3.908118   45.286919
H   29.419184   62.529701    3.966714
H   45.930470   77.213203   59.693436
H   72.908989   70.495026   41.840302
H   29.644892   38.768349   48.133904
H   50.690536   39.276024   90.748665
H   61.582844   20.923729   87.869781
H   11.373343   20.631058   30.140787
H   17.023489   39.789352   20.758417
H   78.912239   64.881630   73.028305
H   89.708664   90.922226   35.489834
H   77.439583   39.660576   21.283978
H   72.045609   14.951555   30.989464
H   99.222618   30.402508   73.903885
H   23.669973   55.216614   82.778419
H   90.627869   56.584255   61.582535
H   23.568529   61.151798   56.727711
