100
TIME:    4.649, STEP:  4649
H    2.929952   95.684425   94.889725
H   72.081398   56.787636   71.241150
H   59.666763    8.371963   68.774162
H   82.256927   41.112175   85.335701
H   53.530380   45.395355   39.650391
H   55.931950   96.171486   39.152225
H    9.316864   75.261047   54.010860
H   54.484062   90.799805   81.338371
H   39.346642   39.311066    7.448378
H   47.794930   83.136116   89.738922
H   67.816376   53.305088   91.934357
H   78.402046   56.720955   62.008080
H   47.404770   80.455711   63.073975
H   24.889717   90.746346   11.030375
H   37.050377   54.759857   27.298634
H   14.597759    5.110472   47.133728
H   50.262245   89.466217   96.605156
H    0.483834   68.611763   38.367626
H   17.678135   73.385788    8.290674
H   67.262718    7.089323   32.858131
H   88.398476   93.394257   31.062733
H    8.084503   50.255600   23.372955
H   23.673180   56.812202   99.335907
H   87.098999   92.439117   61.798935
H   63.309113   17.470222   70.873756
H   25.353556   89.219589   53.246807
H   61.191376   49.224598   92.210182
H   40.272655   73.439316   20.442293
H   12.259200   70.885674   37.410774
H   79.256836   75.776817   52.970558
H   99.021507   38.940365   41.564857
H   59.297894   24.065697   68.882835
H   97.826027   28.338945   16.615591
H   74.532669   47.669586   75.896431
H   65.209717    7.491354    7.820899
H   76.767395   49.558475    4.811550
H   25.698931   34.280258   74.788376
H   71.838890   73.875267   50.507710
H   48.837986   80.124077   93.789963
H   25.309938   76.959908    3.807562
H   17.525497   15.703023   51.874126
H   13.795202   20.507120   21.214777
H   51.285397   91.378616   37.276085
H   82.489136   90.680908   35.289772
H   53.388729   48.464462   53.938251
H   18.109226   51.589375    2.046549
H   78.054977   77.666039   70.092934
H   56.487698   43.253159   56.231697
H    0.927566   47.418919   59.025475
H   23.381107    1.492102   58.505951
H   43.189930   20.812660    2.434683
H   31.064428   32.346561   68.864838
H    5.305589   48.965210   32.862034
H   69.029289   31.351761   36.963158
H   70.634613   66.016121   39.889309
H   99.383163    7.643426   34.363876
H   90.978607   55.401833   98.145927
H   79.881485   37.847267   93.806870
H   56.932457   35.201279   54.577606
H   52.231815   85.125626   31.381966
H   52.963348   62.370167   51.922455
H   33.912529   84.669846   85.001755
H   89.681023   90.043381   14.674583
H   62.279327   67.088242    0.916806
H   16.848455   89.536133   28.510542
H   15.749866   11.157253   21.068487
H   14.570444    9.091514   91.515366
H   59.227547   83.418167   88.451683
H   88.607346   15.738831   68.656647
H   24.575422   81.974121   91.943665
H   74.405556   79.081833    6.378810
H   90.635956   97.233505   96.999474
H    3.867432   88.348213   42.549026
H   27.866070   55.182568   26.925529
H   86.318123   35.267414   53.823940
H   35.563568    5.529547   83.110489
H   89.054031   23.601593   73.268639
H   50.398800   46.734211   71.187859
H   84.449242   39.863148   69.555061
H   71.529419   55.760357   20.405602
H    1.845718   77.377701   57.848598
H   90.145042   74.589066   98.030540
H   11.933428   84.867004   72.691757
H   69.992661    9.983816   38.802383
H   25.961866   58.088409   97.084099
H   44.296200   79.820885   64.623871
H   77.650917   65.332748   45.225845
H   30.787580   33.083885   47.395584
H   52.163925   35.322792   90.167976
H   55.305233   18.002411   90.408127
H   14.278953   24.464848   31.640177
H   22.277311   45.128761   22.111280
H   83.463493   67.012627   78.518845
H   96.570755   95.228638   40.276722
H   76.212120   33.300629   22.915268
H   77.909912   12.147919   27.322243
H   93.586906   34.477077   69.820648
H   23.930525   55.821136   81.641960
H   87.245575   56.890308   55.635353
H   27.978403   59.330105   49.887829
