100
TIME:    3.289, STEP:  3289
H   94.901031   20.403160   96.134842
H    9.780388   83.069489   85.469162
H   36.289688   10.528060   84.732414
H   82.028656   97.142448   59.883274
H   65.711777   36.385357   76.526611
H   77.019905   97.644875    4.466219
H   80.593269   83.426765   47.657021
H   61.377380   73.141586    6.208254
H   72.778038   70.069427   93.055809
H   84.961678   63.608528   36.484047
H   94.320267   98.582794   22.936686
H   30.308708   88.551392   58.814308
H   34.049347   62.718307   98.229546
H   92.229256   94.938240    7.533650
H   20.507465   76.240677   92.672737
H   69.280807   24.061249   60.025734
H   59.625343   99.513443   72.798996
H   71.426842   34.756706   85.519714
H   96.495186   16.330004   36.639233
H    3.909554   35.970142   40.263023
H   69.102798   28.787003   67.971329
H   77.699982   48.450180   39.189529
H   41.831139   67.872993   38.249023
H   13.457809   76.128082   62.805042
H   11.951013   25.325043   60.829811
H   31.577692   29.608751   80.892845
H   78.465179    5.756328   65.232643
H   55.024914    9.959091   75.489769
H   82.686676   47.495590    1.700210
H   27.107666    9.437192   44.854340
H   45.498631   16.986784   49.163734
H   73.426704   61.637108   94.784874
H    2.029547   27.843014   94.096046
H   17.069164   72.305550   33.189819
H   99.014648   10.297006   25.005707
H   58.520245   42.853382    9.333947
H   95.257149   84.084946   67.625664
H   28.051476   98.756859   54.536083
H    6.241574    9.756155   25.583475
H   53.405827    4.277633   96.805641
H   10.472208   69.035187   19.833113
H   36.024590   59.472176   57.321045
H   39.570919   83.223099   39.041538
H   69.334244   67.895264    2.315304
H   71.358421    2.125683   37.559872
H   35.655003   25.649433   96.523323
H   67.429977    3.704168   57.034424
H   56.415066   29.246611   72.082619
H   61.167778   60.053520   13.273892
H   94.859428   80.801659   53.626530
H   43.293690   52.111954   88.095520
H   64.971893   58.545372   58.146404
H   77.102074   41.079468   11.848866
H    0.530582   53.545975   76.951263
H   78.918015   46.823944   28.321745
H   97.681503    9.074987   80.661484
H    4.761032   94.643776   68.798698
H   81.150627   66.282150   28.839329
H   49.672493   77.736786   58.985897
H   41.978256   80.591690   70.063606
H   67.173317   25.619038   57.958462
H   82.181572   97.328537   46.538605
H   97.350166   82.847466    7.933884
H   68.890312   59.685844   37.844906
H   62.870609   98.156532    1.858968
H   99.296852   78.766945   40.655151
H   23.686104   62.069302   25.855696
H   53.172081    5.638131   23.435820
H   20.824860   13.459755   53.953281
H   97.021545   13.569338   94.807434
H   17.591522   71.616142   22.694904
H    2.774589   42.369705   97.426575
H   92.542114   55.617466   77.418694
H   57.811138   41.245148    7.733660
H   20.747908   33.327106   50.726719
H    3.409261   18.366312   74.620789
H   65.575813   41.478134   49.217121
H   86.503525   35.660732   96.078156
H   19.232977   43.857899   54.378807
H   38.226662   29.827351   37.570847
H   75.241104   63.307873   76.564758
H   88.101562   65.707230   11.753202
H   25.893820   62.156342   43.160831
H   76.427429   93.605560   63.016472
H   92.181824   43.156193   28.920662
H   75.596680   29.864067   70.181320
H   86.819588   64.215828   80.375473
H    8.899458   41.968979   61.538040
H   23.939789   11.046257    1.291445
H   75.547272   73.958206   41.791039
H   58.622040   51.027355    2.919448
H   21.645292   42.856796   96.195503
H   96.285995   26.203146   73.347862
H   65.123085   12.734390   48.578445
H   99.724083   55.121830   91.665306
H   65.579498   65.852242   97.567604
H    1.537370   56.429516   48.036354
H   18.939680   44.241547    3.409563
H   52.033012   51.027882   69.549416
H   43.502789   94.233498   80.900146
