100
TIME:    0.253, STEP:   253
H    0.213528   98.820015   98.914383
H   94.232536   18.461994   93.959717
H   84.111328   92.105965   20.369232
H   81.519073   22.226809   26.295122
H   92.904953   93.036591   58.845284
H   24.093128    0.938292    3.800499
H   39.710667   78.421852   10.237563
H    0.000992   10.490269   84.964470
H   47.408775   61.968475   84.161858
H   67.926506   20.019245   17.596361
H   76.721588   76.422577   15.379574
H   46.185169   36.372124   74.920357
H   27.169403   46.400604   99.983238
H   42.554874    4.297210   76.493950
H   83.579948   47.423309   38.610966
H   91.351028   89.607979   12.038471
H    3.725631   98.728401   96.390114
H    6.551157   82.397171   90.775192
H   49.203911   88.966446   76.690994
H   85.800911    0.227247   33.448189
H   49.263168   31.030487   50.375038
H   86.607033   44.433868   97.712593
H   82.366112   92.564583   25.111965
H   95.535065   39.716099   88.284760
H   20.534498   66.109520   38.426651
H   45.498112   20.071705   65.458641
H   40.262310   31.959717    4.986715
H   11.193802   68.248367   75.138290
H   16.672577   72.046165   45.212402
H   10.695027   84.577957    3.501768
H   26.054049   44.730186   89.391685
H   81.731995   45.520523   75.842613
H   88.178772   49.971306   20.589193
H   88.791801   50.536713   61.092720
H   74.483116   39.795395   40.134018
H   94.552147    4.359999   19.773794
H    4.065394   95.269875   28.400585
H   53.531960   54.323612   40.294514
H   39.346508   75.107185   17.877480
H   39.363682   88.498161   57.940506
H   17.952312   64.859612   48.300014
H    8.882980   23.211809   14.686399
H   13.420644   65.017105   19.747871
H   63.203644   17.011683    5.468937
H   34.709793   21.909729   77.757263
H   74.720222   67.960258   84.310432
H   38.751514   39.389065   29.785101
H   56.252926   97.987457   84.232162
H   72.423515   11.496311   34.381508
H   31.196005   34.600216   65.968521
H   43.525318   45.218300   56.084476
H   17.428244   40.262436   57.454117
H   14.127302   23.475708   88.176277
H   70.827560    3.074112   42.980122
H   20.617889   80.684464    2.552980
H   93.882797   12.266148   84.014084
H   12.291592   82.246635   80.049797
H    7.220428   52.993965    7.038082
H   10.231178   49.458755   92.060455
H   42.322731   47.234863   56.413658
H   75.660019   66.803574   94.670349
H   89.931671   25.590469   83.907486
H   91.393578   89.900505   16.201385
H   60.413490   43.170738   20.271345
H   42.364197   40.637554   19.122240
H   85.803261   29.695759   61.145199
H   67.269951   57.107662   79.276901
H   62.889336   32.007126   78.297462
H   69.513176   31.607353   44.365330
H   35.511765   60.870277    1.198744
H   13.998461   78.190315   59.113071
H   53.105404   43.128990   75.145790
H   90.495331    5.793270   55.262218
H   24.622231   33.369114   88.172066
H   74.368942   29.003687   20.577110
H   31.639441   23.787111   78.905441
H   89.925690    4.615772   95.509583
H   43.866730   34.177494   28.412197
H   73.680641   52.760059   20.509495
H   87.117874   95.175102   99.125092
H   15.832815   31.899023   95.110184
H   60.306805   45.879837   65.625061
H   33.804188   11.480218   53.996826
H   67.574982   33.811131   40.321419
H   40.011078   33.058647   23.226833
H   45.471378   18.346113   59.352619
H   84.052010   84.957756   35.607189
H   60.027969   85.038322   93.108818
H   60.933540   80.085732   26.130924
H   43.966988   98.877045   33.256161
H   34.376377   87.092728   38.804638
H   97.006065   14.534281   38.345001
H    1.517428   35.211967   38.487816
H   71.681831   28.578531   43.876858
H   52.217731   27.067326   21.900505
H   14.818390   85.740776   54.381187
H   42.520134   82.199623   22.638725
H    7.794145   18.391815   51.987358
H   96.659874   37.940876   23.859402
H   54.953655   72.205147   73.318466
