100
TIME:    5.798, STEP:  5798
H   25.227106   90.316093   93.837784
H   40.347847   19.048277   43.688251
H   79.423798   91.035736   55.286121
H   82.449783   93.771881   22.354378
H   43.238892   37.492691    8.498186
H   38.110317   94.926689   52.942226
H   49.096294   52.847317   43.864231
H   64.174927   90.202866   75.841240
H   11.102028   28.839432   35.123260
H   16.397455   99.634056   34.732883
H   60.939194   99.537888   81.256462
H   34.547752   14.314186   80.221306
H   74.084518   10.973686   48.903252
H   67.998573   87.204811   98.469505
H   51.023659   52.126602   72.069061
H   68.398773    4.614696   51.756561
H   57.866463   65.462013    1.203158
H   25.054296   12.707634   98.537636
H   35.573406   21.585962   68.821808
H   36.308434   82.685585   11.087366
H   20.215172   79.008362   99.877068
H   18.240250   51.780914   25.524994
H    8.331279   47.467461   66.462753
H   80.340569    6.189181   76.463974
H   22.214333   26.349297   79.359413
H   20.115767   55.257172   45.199554
H   62.111893    1.459974   15.006945
H   43.323200   27.070732   58.426125
H   37.243126   75.131989   83.097992
H   23.314056   47.339348   44.312637
H   44.243645   41.973301   50.659630
H   31.846378   92.320435   62.514153
H   78.760979   44.272713   20.126585
H   23.081112   42.370567   27.490026
H   36.649521   20.635336   77.785461
H   76.647949   39.553291    1.197566
H   35.902817   92.199341   65.325050
H   24.351078   52.849331   31.590275
H    0.335318   55.087883   82.443214
H   17.086992   69.394707   94.208824
H   38.998978   55.124512   78.944069
H   11.590213   64.339996   75.956657
H   61.182407   98.268829   20.270012
H    9.122608    9.962179   47.633316
H   53.721523    3.133963   52.261089
H    3.283134   73.504807    6.716200
H   87.031540   40.153458   81.120781
H   56.549061   55.087494   27.325277
H   34.511002   52.258713   13.188815
H   47.479321   18.980619   78.143967
H   43.103474    9.883814   14.547345
H   86.904884   25.728039   93.433327
H   29.139957   55.627502   66.131676
H   42.422295   12.601312   87.666710
H   79.149376   66.714890   49.663593
H    0.817144    6.434790   95.249191
H   63.818314   22.248161    7.425495
H   94.324860   29.338400   64.212265
H   47.552071   83.748528   66.368645
H   76.409988   73.442337   98.701683
H   25.443134    8.938732   62.337009
H   93.135567   73.975113   33.013115
H   67.687859   11.637701   35.884186
H   41.177994   73.347290   69.726501
H   62.457405   97.767136   35.511921
H   45.165581   54.037285   89.006340
H   22.384277   48.813198   46.990128
H   79.858162   49.131443   43.380527
H   45.874523   33.179024   96.591370
H   47.851013   39.764809   89.524200
H   37.920738    0.904671   92.596748
H   95.895889   59.100647   81.124710
H   28.951328   31.513351   13.085915
H    2.575115   82.463219   58.655907
H   41.715801   36.906689   40.926163
H   62.729942   79.170830    5.798207
H   93.375603   24.013624   93.588631
H    4.380915   71.604424   34.641762
H   39.547642   36.488171   82.371208
H   15.185728   93.174721   21.418163
H   24.329874   89.264633   26.521593
H   76.367355   82.071686    1.937861
H   84.611290    4.082105   82.115952
H   49.042358    8.306267   33.859241
H   70.014610   86.216682   85.701385
H   17.848652   22.023537   44.414001
H   54.390038   81.790947    0.014435
H   49.276787   41.111889   35.461517
H   76.007919   71.348930   80.770638
H   53.718197   70.731857   31.482412
H   61.300713   86.506775   55.904949
H    7.292184   31.543894   44.000679
H   57.116425    1.486758   67.372818
H    7.622374   64.931099   17.749147
H   56.347969   30.380123   49.317478
H   72.812607   66.774933   67.974655
H    2.384726    0.416224    3.740819
H   27.085848   73.342361   62.484367
H   32.509583   61.843197   59.394821
H   99.348175   29.849140   39.201145
