100
TIME:    8.065, STEP:  8065
H   71.919182   82.422295   91.762283
H   77.741135   41.895115   86.629410
H   18.400888   54.132141   28.668911
H   82.830292    0.371430   98.091866
H   22.929716   19.202564   47.029434
H    2.949485   92.470680   77.450478
H   30.283928    5.924266   21.146671
H   85.993195   86.326958   67.693153
H   55.374779   10.875941   92.423889
H   54.476082   32.186451   23.497257
H   50.068375   90.755524   62.886948
H   48.023903   27.947170   18.853481
H   29.471550   73.821533   23.629770
H   55.750465   80.217293   70.990974
H   78.563484   49.627274   63.053650
H   77.246811    6.334566   63.575470
H   75.567665   15.408548    7.577123
H   73.531128    2.396222   19.953720
H   70.877579   16.689045   88.257706
H   75.229813   34.544559   65.435310
H   85.688194   53.321751   38.345692
H   35.579746   54.790390   32.469009
H   78.062828   29.031492    1.600270
H   69.703934   33.309052    8.096324
H   41.133003   46.565979   96.101784
H    9.580242   88.347275   31.929707
H   66.625977    7.223539   59.993320
H   52.039864   32.886631   33.357910
H   86.536263   80.812027   75.935417
H   10.241508   91.230423   24.532707
H   33.463528   45.259583   71.301949
H   74.986351   29.684391   52.646614
H   38.444637   78.408775   24.355848
H   18.867252   34.613503   31.984758
H   80.240044   49.036339   15.732466
H   73.714447   17.114458   94.071083
H   53.336903    9.176943   43.955715
H   30.651531   11.357101   91.566460
H    4.644401    5.695578   62.753883
H    3.560961   57.165749   72.572815
H   84.066223   32.912079   32.352383
H   20.539803   73.230057   91.693108
H   80.694611   11.867373   84.016670
H   64.365021   48.013222   69.287506
H   57.076012   13.689993   46.254059
H   74.019707   16.741375   15.926233
H    4.745368   63.440315    2.880797
H   56.679867   78.436874   67.594048
H    0.780773   64.505684   22.757324
H   95.066650   53.487896   19.627277
H   42.947811   91.019493   38.444138
H   97.087097   15.366343   44.619934
H   76.162865   68.772339   34.469429
H   89.926117   75.618378   87.703079
H   98.647133   65.383926   68.944016
H    3.640707    4.050126   18.075165
H    7.538770   56.834312   23.036186
H   25.519056   15.247515    5.818395
H   26.343670   79.543709   92.336014
H   26.812233   47.691525   34.222801
H   68.446976    3.512510   85.585152
H   12.675331   52.874191   30.438244
H   21.593002   56.942047   80.429199
H   96.848503   85.696518    8.172772
H   52.437843   16.705835   46.627533
H    5.903080   41.338219   23.050098
H   40.498810   27.190910   56.440594
H   23.261208   78.783073   51.756241
H   58.862221   70.286873   54.411095
H   93.820702   53.727100   84.737869
H   65.932381   46.659706   65.407692
H    9.134654   83.809959   47.206936
H   81.137817   19.384550   54.965260
H   52.664097   38.985867   23.958372
H   50.969986   40.190487   12.795282
H   16.317080   24.463264   53.256386
H   99.256554   27.754196   33.775078
H   10.887527   23.372601   59.840908
H   48.258232   29.829273    7.661690
H    4.010594   69.680626   26.114143
H   68.700859   12.718484   62.016953
H   46.487144   96.773285   12.286617
H   28.003355   41.993443   98.012238
H    5.008958    2.298395   26.804249
H   59.631866   44.405979   65.941719
H   65.678818    5.293933    1.841164
H    5.797944   16.961281    8.113670
H   85.736412   59.705765   11.956474
H   23.056465   45.125587   62.229500
H   53.285053   77.460831   12.522018
H   54.075733    8.918851    3.779983
H   75.027229    2.044851   87.197670
H    2.435643   69.509850   42.683411
H   26.717230    2.467106   70.609352
H   17.152325   27.315979    1.412415
H   60.057526   77.254150   50.881248
H   22.440516   30.512436   73.363075
H   22.710001   85.515633   16.976164
H   24.514854   71.628822   69.509911
H   40.159023   71.670670   20.812817
