100
TIME:    4.262, STEP:  4262
H   29.100170   31.174133   95.244034
H   82.769722   35.815491   46.838989
H   53.014610   80.529594   73.315224
H   82.191971   57.056084    6.547607
H   56.996704   14.375598   50.143845
H   61.934536   96.590752    0.825751
H   29.599339   49.129070   23.746958
H   84.901497   57.318188   16.870739
H   48.859840   76.519424   31.808863
H   58.371056   77.579369   74.586304
H    3.814164   37.733204   29.212402
H   93.170830   37.322533   89.555611
H   72.100113    3.858063    1.528335
H   44.051384   91.939186   81.580307
H   32.343971   89.328613   45.902439
H   30.159309   38.959038   79.257751
H   81.382393   63.867405   61.375023
H   92.212364   87.439476   51.785091
H   11.650452   57.151283   87.901276
H   77.691216   15.307817    6.509369
H   11.363586   31.921856   41.565178
H   70.982437   49.741852   56.329605
H   28.840187   59.959648   10.408763
H   23.055550   87.797668   90.539536
H   77.150787   48.162247   68.015663
H   27.117720    0.658026   89.639381
H   94.561638   65.312943   84.533485
H   72.925995   55.375458    7.649264
H    3.843625   35.773647   55.704933
H   64.417191   85.354973   22.205189
H   83.792122    4.237811   72.183067
H   34.862377   34.756973    4.709362
H   70.567848   56.653954   81.751572
H   58.181305   83.135925   92.200554
H   74.829208   36.745689   84.254410
H   43.125751   19.247334    6.029119
H   88.580246   48.452621   44.294178
H   87.835945   80.955544   23.199337
H   65.174377   88.556633   31.292410
H   61.759758   13.188811   73.360413
H   43.973862    2.425157   42.756573
H   48.576859    3.137850    3.034192
H   47.951939   89.057892    9.323030
H    7.201849   84.197052   97.450806
H   86.958580   63.732231   20.821665
H   23.102032   44.207935    0.473305
H   75.031540   56.620079   66.378593
H   56.467030   39.267181   32.286308
H   89.613510   79.470551   74.462494
H   15.264476   95.603920   85.574562
H   43.219456   58.174995   98.354660
H   12.257998   68.258392   94.268799
H   97.278877   46.721252   55.339993
H   77.993309   37.667320   19.886509
H    1.447675   32.099705   36.597187
H   98.898941    8.050558   47.538269
H   66.442703   66.568474   61.339119
H    8.698422   74.394249    3.775117
H   26.411680   18.848728   84.287361
H   77.770233   55.380520   42.389168
H   28.551245   80.368797   82.096596
H   47.647911   88.271988    2.510883
H   63.408939   16.451698   41.212334
H   35.703194   64.980103   11.425022
H    1.487526   20.444763   92.470238
H   39.523628   30.396065   98.186508
H   45.620560   95.711731   72.831467
H   85.960167   61.285660   69.950844
H   69.321121   43.546188   92.926819
H   16.734858   62.510513   92.758575
H   86.694176    5.413059   11.021606
H   22.546047   10.077571   68.666557
H   29.101561    7.491558   52.472633
H   36.387203   79.672295   49.920189
H   67.657845   34.715282   24.486769
H   26.413538   80.727501    9.151512
H   53.917534   57.145435   66.424568
H   32.216839   72.039803   49.815155
H   65.889351   40.999889   65.238396
H   90.508575   76.836998   53.746086
H   94.274704   73.374008   34.718121
H   61.109116   72.061661   30.392138
H   87.453255   78.398743   35.834484
H   43.368622   76.867500   74.148514
H   44.805679   82.294350   34.599228
H   53.204121   65.607185   37.749527
H   51.804070   93.470795   26.772245
H   24.559122   64.068214   51.419945
H   44.132919   56.870689   93.333138
H   89.520432   33.925652   76.572357
H   98.441162    3.568068   23.467447
H   93.641266   16.025223   14.737223
H   58.655952   55.399384   48.591534
H   59.167141   71.755661   14.183802
H   82.902657   67.966484   14.023421
H   45.945328   27.429161   47.311180
H   24.304722   12.267928   92.077164
H   22.510336   52.526062   87.836464
H    5.681344   55.222103   88.049492
H    3.941177   69.261177   87.168167
