100
TIME:    1.510, STEP:  1510
H   15.207384   83.546677   97.763565
H   59.266853   86.615044   73.250603
H    5.710282   82.539772    5.609916
H   81.730057   70.437950   57.396290
H   81.646118   93.790688   24.761894
H    4.600941   99.572197   28.285807
H   73.830238   63.301472    8.536827
H    1.203275   19.236553   69.551628
H   16.509315   41.113113    5.037282
H   33.574593   38.064720   66.822044
H   59.798508   27.000416   94.298798
H   98.206055   99.379402   85.445900
H   47.210754   70.350243   75.046715
H   80.315422    0.421711   72.152489
H   98.866646   35.147274   78.188828
H   40.810944   79.660942    7.697927
H    2.665759   81.855698   10.837539
H   33.412384   21.269562   47.197556
H   68.779747   41.700485   42.914463
H   51.834732   73.746445   19.140421
H   74.671097    5.891469   16.260666
H    7.136485   46.092964   90.681068
H   65.583351   82.341484   89.146622
H   78.746147   54.791813   94.928009
H   75.577873   66.416878   47.703308
H   39.735233   82.615189   47.639931
H   31.869446   79.709061   29.930548
H    5.132971   26.921398   16.684561
H   44.004501   86.091187   85.794273
H   58.893261   53.467514    3.429659
H   75.500862   57.454071   89.924133
H   61.099491   10.794234   59.475807
H   76.720657   58.003349   33.829681
H   41.902763   35.340157    8.137722
H   43.238411   44.775795   16.677521
H    3.843016    3.101686   15.448602
H   24.627995   49.237160   27.447271
H    1.581460   31.316845   28.998028
H   82.836838   48.273949   97.400024
H   20.968653   70.822792   56.838673
H   32.049332    7.995002   77.919479
H   95.910980   79.627998   73.742477
H   24.247351   72.554962   10.542644
H   82.935890   38.077827   28.374144
H   25.674564   72.312332   85.324661
H   58.606426   91.717720   89.302650
H   52.024281    7.195788   40.526070
H   56.320057   10.930262   62.008175
H    9.170789    7.391854   84.239975
H   57.559322   53.732563   78.052940
H   43.429417   23.862982   69.338058
H   78.516350   23.621992   74.933884
H   40.202744   30.764221   15.170753
H   41.723705   82.569283   98.449539
H   20.548492   90.879532   13.219542
H   95.455582   10.945009   41.222839
H   91.979614   45.976692   99.600899
H   13.619419   34.287163   74.661209
H    9.368057    2.569141   95.559601
H   59.373005   43.852032   20.661583
H   54.952831    8.350844   96.664909
H   45.318298   13.890055   27.031670
H   76.655838    4.182251   29.966408
H   46.728729   50.008514   86.143898
H   92.256310   40.242962   36.184399
H    8.583612   67.206490   35.468334
H   66.418442    0.568616   39.965771
H   76.059685    3.895107   38.389332
H   32.160461   41.287354   65.529366
H   60.973610   24.091299   98.553497
H   74.082802   92.659981   44.037357
H   49.460224    1.411003   67.177940
H    8.536545   43.614788   23.029728
H   96.957024   53.824730   13.464806
H   34.975197   30.792250   15.866112
H   61.359310    4.348973   94.326134
H    4.052767   95.670151   17.752546
H    2.922877   51.986305   97.830612
H   33.931198   49.078953   34.526360
H   25.472397   26.715765   90.833412
H   40.431530   44.903301   70.237846
H   54.620647   54.089005   60.512283
H   13.340320   32.459290   73.719940
H   54.045414   41.374249   25.508156
H   78.804749   54.433861    1.374979
H   16.537075   64.521980   46.642311
H   68.004204   93.563614   95.545624
H   80.263184   84.400452   80.047035
H   87.018745   10.098123   15.845526
H   32.833885   47.150909   78.195595
H   85.817940   54.966167   65.350174
H   90.011665    9.072630   62.291603
H   82.168785   72.874741   35.733109
H   93.174629    4.824807   28.630592
H   30.486118   14.472527   50.784355
H   18.641434   36.102165   89.455322
H   42.745377   54.336224   50.347748
H   12.409350   29.094421   31.876785
H   36.778984   43.359310   18.565792
H   33.017502   39.917553   52.251411
