200
TIME:    0.788, STEP:   788
H   26.309965   60.656300   24.710037
H   32.848450   40.878334   12.144164
H    6.652087   93.124023   72.340141
H   36.314560   83.378914   30.169632
H    9.391887   97.618225   45.779579
H   71.791199   37.941414   49.329399
H   11.298766   54.915306   60.258327
H   15.169000   12.549239    5.620902
H    9.682901   79.290741   34.350964
H   91.570572   67.222466   74.457161
H   31.294260    6.300412   10.278984
H   33.043854   56.649750   38.853432
H   24.624157    5.195354   38.831841
H   78.502602   55.518978   68.672417
H   93.164566   76.163124   41.630249
H   13.327316    3.387375   42.501488
H    9.986100   33.383991   88.825356
H   23.549782    9.511502   33.764217
H   83.258362    9.862623   50.550896
H   91.799690   72.179039   16.227528
H   64.661644    4.113816    0.734421
H   77.829140   69.760719   49.456924
H   78.595146   58.557053   35.987251
H   20.215477   93.055367   89.867729
H   27.065323   34.743706   25.856243
H   18.207464   86.656479   88.857399
H    9.508147   69.792549   71.115250
H    7.087075   92.735603    2.173214
H   34.149296   39.872993   35.129517
H   68.285904   35.444805   79.669662
H   12.646034   74.343910   16.864803
H   21.960857   76.350082    7.095291
H   13.882362   20.777056   79.872787
H   78.289772   64.175789   47.868759
H   21.690115   67.157211   30.050234
H   15.160673   37.427307   85.760384
H    1.992966   62.601212   90.068947
H    5.808822   58.930683   90.528687
H   32.788666   26.777802   56.612709
H   84.827347   37.434978   42.290131
H   80.667366   79.624283   19.713646
H   40.615555   31.615625   23.581497
H   66.834915   75.193214   70.676765
H   36.060440   89.849556   38.347050
H   47.501022   93.014603   64.139610
H   33.348106   99.576881   48.647762
H   90.300995   99.364197    8.193679
H   76.774544   65.542244   27.947220
H    8.273490    7.956528   61.561428
H   42.506847   20.274511   82.528961
H   65.172165   63.559990    6.151220
H    0.190067   45.130108   75.323524
H   66.957481   78.750786   15.089396
H   14.250574   93.748093   89.818306
H   54.003220   64.197586   73.050484
H   98.280937   58.849106   96.592682
H    3.866574   18.819191   43.776234
H   73.395737   71.318619   95.412102
H   16.617815   85.063522   20.380314
H   30.428867   92.912025   56.863892
H   48.644722    4.684778   26.225338
H   99.785759   17.723055   53.267342
H   86.544571   36.558258   66.396942
H   37.403984   65.934166   15.902840
H   80.157547   84.248566   40.338612
H   17.242842   37.851067   42.713516
H   65.705421   11.602622   97.157021
H   94.272636   92.695839   98.121010
H   36.014709   13.258681   55.043678
H   42.082470   51.181271   50.953327
H   58.224762   86.070251   87.939606
H   16.739079    9.417798   40.928844
H   94.886368   35.137035   81.145752
H   25.718649   96.919334   76.526527
H   85.817764    9.742423   41.845779
H   67.165108   99.729805   59.296524
H   93.111359   50.350937   64.394173
H    6.258205   15.948721   29.228706
H   15.698389   54.106102   22.795790
H   60.017788   87.610703   68.273102
H   66.626488   20.840292   92.997833
H   50.732891   58.734730   70.916191
H    8.861701   19.677401   74.245934
H    6.803837   79.778969   11.711934
H   19.393829    5.118737   42.252213
H   40.105713   66.600677   16.375214
H   60.415962    3.926020    3.027675
H   70.774300   98.148529   32.111549
H   82.459183   73.391006   79.144287
H   20.699364   10.610666   48.836636
H   18.271446   39.623493   78.317017
H   80.238258   93.343506   10.325077
H   73.292862   10.681671   80.122498
H   35.454578   74.745750   84.151756
H   39.010216   49.513451   90.763359
H   46.578102   39.961449    3.295974
H   86.739250   95.324425   21.930168
H   91.898232   36.962063   53.790207
H   24.600609   64.288498   54.823280
H   76.732719    6.831706   27.384195
H   34.316067   95.578003   94.744362
H   10.949216   84.947311   62.841805
H   34.538925   17.142626   38.160381
H   48.207664   68.951263   11.924586
H   24.612307   20.271118   42.854305
H    9.118364   99.942947   18.234064
H   91.549690   36.892723   53.700748
H   61.521931   55.314796   97.551521
H   86.723167   33.172340   25.631184
H   21.970446   20.419779    8.219316
H   54.404518   91.304726    1.181409
H    7.997531   77.125671   96.753258
H   47.576202   86.633820   82.015602
H   61.367851    7.583155   60.822983
H   45.562965    4.787834    7.558021
H   91.674507   89.766975    3.656198
H   10.043887   16.159109   90.568527
H   37.990810   53.969608   23.024529
H   39.673470   78.287857   56.456318
H   85.244392   57.612118   69.785904
H   46.274055   25.401005   69.562828
H   94.644531   14.498310   64.307617
H   45.448067   98.710159   40.286098
H   96.003662   47.599220   93.867302
H   60.518852   95.384239   74.688896
H   67.799065   77.345398   14.950500
H   81.765236   51.748642   49.891006
H   63.442009   91.867943   39.630840
H   99.211525   32.647350   72.401894
H   94.306503   21.551956   75.837578
H   70.730141   65.619049   24.353512
H   60.665855   91.486557   22.250172
H   90.648323    9.256021    1.452019
H   74.049866   27.053082   56.451488
H   31.497654   91.461395   31.235275
H   47.762527    0.923543   75.608269
H   69.799973   87.960945   82.619087
H   95.892601   47.110584   74.539711
H   60.637024   51.997238   71.420479
H   43.744789   82.808189   80.230621
H   77.747574   46.953354   32.611877
H   32.010696   57.661293   59.021656
H   37.389244   66.846840   80.900452
H   32.602547    6.690983   87.205360
H   66.060516   51.592667   66.987915
H   66.019157   71.416672    3.600473
H   57.692070   94.377953   43.358112
H   27.688972   53.020042   65.680931
H   79.835175   41.912331   92.496735
H   26.930664   94.657677   69.489578
H   56.905197   70.616653   47.207188
H   56.855530   91.946129   30.979248
H    1.633326   11.347958   84.227890
H   24.395912   13.721388   62.410313
H   35.342808   68.351883   70.666832
H   79.770012   44.887699   70.921326
H   65.047470   77.318344   87.244553
H   53.837189   27.867447   22.562656
H   87.300713   99.669418   82.281715
H   57.535831   34.584320   99.271042
H   59.338867   62.146049   68.845421
H   17.874224   20.216419   30.796555
H   88.808037   10.677212   37.004192
H   31.389952   36.278248   47.753708
H   53.707146   40.682953   15.209032
H   21.355232   47.002819   59.306202
H   65.463524   88.703438   58.031071
H   24.110928   55.865410   70.673233
H    1.519471   26.388098   35.562943
H   51.481056    6.324273   84.232330
H   68.895996   12.150809   35.930084
H   27.231524   45.092506   59.140930
H   48.261093   53.906467   75.004837
H   64.477951   61.430916   86.953415
H   45.967773   90.914169   73.464485
H   17.824944   50.622917   23.817978
H   29.788151   70.040619    9.831009
H    6.586850    9.723473   71.887405
H   61.586803    8.640035   62.725925
H   60.232872   60.333458   94.115501
H   71.412903    4.827435   28.978230
H   30.280943   30.774990   89.621811
H   40.402737   89.588806   16.923935
H   63.415039   26.234356   97.350624
H   92.609604   64.565918   76.139145
H   10.732533   40.847855   86.696877
H   50.433655   95.138100   11.407530
H   64.093872   90.436958   44.701927
H   90.748085   63.617146   72.806412
H   59.578766   55.292324   72.626602
H   73.998230   12.893837   75.388130
H   43.160530   99.821594   17.644361
H   16.272758   30.561142   70.360451
H   25.529993   85.401459   44.357151
H   66.088882   29.778305   20.023720
H   76.666031   11.728130   22.058506
H   13.103896    0.502024   21.963118
H   12.983267   86.514915   31.511986
H    4.605605   13.145243   53.508583
H    2.292134   16.426540   90.135361
