100
TIME:    1.305, STEP:  1305
H   29.070150    2.346241   97.951248
H   64.969292   75.501076   60.319241
H    2.186851   67.791008    8.017029
H   81.695648   78.883690   68.633171
H   83.482285   77.359032   30.320442
H    7.780019   99.794289    7.983814
H   84.575096   49.458279   92.505470
H   17.315872    1.501802   88.373116
H   21.548607   60.822968   17.941610
H   39.176933   35.121223   58.794449
H   78.867111   18.751743   14.045614
H    6.030476   89.103752    0.038258
H   60.250038   82.752968   95.422844
H   90.465950    1.053726   56.552151
H   96.373589   53.457325   88.042191
H   49.053360   97.590935   24.714340
H   19.147072   68.298721   92.172844
H   29.031548   31.238663   54.304489
H   65.586006   33.099907   32.114864
H   57.357307   78.100693    5.183093
H   86.836090   26.300423   21.824688
H   87.479668   45.822388    8.136228
H   68.320396   84.008736   95.011719
H   97.792854   52.333164   10.153097
H   82.910027   82.676491   46.190895
H   40.675213   88.724274   66.854218
H   49.547623   88.229874   25.862516
H   22.429565   17.352688    9.908420
H   39.547028   67.491791   95.484978
H   51.032467   58.541214   87.132652
H   67.436745   39.070511    6.145962
H   48.155613   16.457932   78.453697
H   62.281384   73.002357   15.361661
H   33.241188   54.127235   16.773848
H   48.334007   60.272163    4.195030
H   86.019226   86.998306   16.154013
H    4.965875   56.744484   11.294126
H   10.054176   35.068943   14.532312
H   92.052078   52.650093   17.048416
H   40.277000   90.013390   40.708874
H   46.058311    0.960984   73.089767
H   14.335228   70.428398   64.111206
H   22.481565   71.325638   95.735176
H   96.026787   34.641663    8.330371
H   43.456253   80.401474   67.782547
H   61.251194   87.807655   88.470589
H   49.859669   96.137238   38.774361
H   56.309109    8.819609   49.323925
H    3.178862   24.369362   92.416702
H   53.259815   50.612331   92.391930
H   43.445057   43.654488   67.176575
H   68.553505   42.644894   88.390762
H   35.950157   29.575562   27.076900
H   46.470524   85.913170   89.403214
H   36.869102   72.908875   11.479954
H   95.199081   11.160454   48.201523
H   78.982559   51.891838   80.103752
H   28.885033   53.646675   79.941360
H   93.200035   93.907425   11.297398
H   72.901291   28.094473   26.492271
H   42.021465   17.883896   12.648317
H   52.594147   15.798557   36.307907
H   62.751511   18.162243   44.030128
H   32.650932   48.893364   91.708702
H   84.120247   56.616749   17.092947
H   21.176918   77.397682   23.347136
H   82.865738   93.480530   30.068462
H   90.220375   92.170944   28.589148
H   21.942680   56.017349   78.385658
H   56.821121   13.780375   98.985168
H   80.592278    6.608339   46.496006
H   66.362869    8.214907   52.168312
H   21.903492   53.754368   28.286419
H    1.468076   66.797989   25.648567
H   25.091572   30.500559    0.325261
H   56.512394   91.210838    8.120242
H   85.440666   13.438017   14.125540
H   93.291595   65.391411   86.510193
H   24.104425   49.679539   32.239754
H   35.525955   37.880974    8.494277
H   36.419804   42.782482   57.985271
H   39.238453   52.750198   77.654007
H    0.369186   29.037878   54.194645
H   39.942593   23.832132   44.232674
H   88.786362   67.256912   21.247215
H   21.255741   56.991306   32.406548
H   54.312721    8.468803   85.770462
H   76.963089    0.813316   82.177238
H   82.764595   21.511805   17.522907
H   50.958908   55.585701   70.866570
H   77.428505   43.897556   61.020947
H   74.843742   93.654915   58.386230
H   69.015327   66.731247   19.873289
H   73.361549   92.390450   14.808515
H   34.030537   32.835754   46.073509
H    1.709217   44.197563    0.043779
H   59.017502   42.571621   62.137375
H   11.656663   27.348969   35.156578
H   46.544762   42.475636   35.737232
H   20.286331   45.183628   71.995674
