100
TIME:    8.931, STEP:  8931
H   13.355218    3.006474   90.969437
H   53.823593   88.821533   41.233257
H   33.286587   16.435829   18.503956
H   82.975647   64.693291   50.624916
H   15.169729   88.616287   23.549149
H   89.522827   91.532478   63.213715
H   84.896095   64.403267   88.868996
H   17.927307   61.245861   88.178856
H   34.086845   27.613365   37.912518
H   30.822657   44.620930   57.405495
H   69.515167   25.599621   79.469917
H   14.968803   71.355522   57.210564
H   74.249390   21.406525   37.569260
H   12.872027   77.548042   36.893421
H   89.081917   72.271889   21.409378
H   42.427628   30.591148   91.689514
H    5.929084   72.686134   86.412514
H   92.047775   60.256477   89.934158
H   84.369186   53.021244   33.881237
H   51.897121   16.154276   24.396570
H   34.298515   67.108856   14.841982
H   18.604013   55.940018   58.721130
H   66.500481   21.991674   76.823700
H   89.239243   43.668915   43.780636
H   10.161145   77.887756    2.496221
H    5.495966   62.817612   50.435619
H   91.948769   71.227432   77.173203
H   78.969452   73.308594   61.986282
H    5.366688   59.382107   34.998100
H   43.446693   69.797134   93.377869
H   67.548637   22.916077    2.786789
H   29.665974    5.759613   72.476677
H   99.443741   15.047997    2.371968
H   55.458313   55.249817   95.503349
H   58.687828   83.467995   68.423172
H   48.993839   84.946335   91.348976
H   36.398254   77.462166   12.193107
H   94.858040   95.509727   52.676140
H   68.093468   86.826805   78.832306
H   21.993414   76.093498   40.707169
H   24.880617   62.624008   52.754971
H   47.557907   76.626083   35.904430
H   88.147369   17.062508   46.567783
H    9.070614   62.555351   53.959347
H   81.957413   79.528938   20.361334
H   62.841255   33.255962   19.444490
H   11.515792   10.536177   11.197260
H   56.732723   87.356400   21.176807
H   26.092628   92.785316   88.212738
H   13.245651   66.670311   59.078281
H   42.888348    7.412838   47.575089
H   39.176083   35.008251   87.771339
H   94.120842   73.793701   84.174423
H   69.867096   61.491318   25.916061
H   29.695789   41.275108   76.304276
H    4.719309    3.139178   88.594467
H   62.437050   31.846428    5.399833
H   61.035095   33.464836   83.512474
H   94.647133   16.135214   25.852335
H   69.663841   14.253957    9.591698
H   23.075029   63.236454   18.065540
H   81.939262   44.813583   91.255196
H   80.386765   97.847191   21.044983
H   56.316593   90.413956   84.662872
H   86.809967   47.540234   27.274118
H   52.703407   98.287254   74.254784
H   71.017563   57.128010   98.250046
H   63.440491   28.311348   93.156052
H    2.020551    8.061623    0.094952
H   11.408965   97.226395   82.901108
H   38.427670   87.734184   55.021400
H   37.821136   55.056053   10.685029
H   24.673920   76.546043   32.758945
H   33.602741   84.176613   72.504036
H   92.686935   41.465649   78.456116
H   36.792343   79.966789   94.986740
H   77.908035   52.800404   49.136482
H   51.568676   66.750130    7.674486
H   89.787682   27.285557   17.326387
H   61.540642   22.505583   51.507561
H   85.654564   21.677652   13.777036
H   11.471596    2.391740   39.836487
H   82.779945   56.476109   80.486549
H   64.586342   76.404152   47.707928
H   17.465637   90.233078   81.993423
H   45.745884   37.104134   61.978958
H   63.636143   53.995705   49.407768
H   99.664085   90.407082    2.977344
H   41.029301   96.908974   55.146736
H   76.718948   41.831474   43.477966
H   89.515984   55.677235   22.068504
H   39.102459   67.175980    3.700714
H   57.947803   95.488792    9.652522
H   10.412188   55.006336   29.001295
H    2.177754   49.745686   21.310774
H   31.585602   43.056030    6.151117
H   53.701408   80.210609   23.558529
H   21.038416   28.366684   99.589622
H   83.260887   75.368416   96.971840
H   93.950745   49.448864   37.388668
