100
TIME:    0.968, STEP:   968
H   51.860268   33.250710   98.259781
H   74.343544   57.229847   39.061337
H   96.396027   43.545483   11.973961
H   81.639084   92.767662   87.103996
H   86.500763   50.346992   39.458153
H   13.005806    0.160118   74.610405
H    2.238384   26.701422   66.151634
H   43.803406   72.345566   19.315079
H   29.832710   93.224045   39.154953
H   48.386635   30.282860   45.596962
H   10.214020    5.192176   46.506538
H   18.893719   72.211586   24.025476
H   81.687469    3.141919   28.917849
H    7.152155    2.092701   30.905369
H   92.275246   83.558929    4.240639
H   62.603088   27.068439   52.687973
H   46.240776   46.012375   61.489265
H   21.829880   47.626892   65.987595
H   60.337601   18.961397   14.361376
H   66.446510   85.236816   82.226952
H    6.834064   59.850784   30.971397
H   55.166004   45.377586   36.832165
H   72.819832   86.749535    4.653681
H   29.103867   48.291386   35.182663
H   94.963371    9.404819   43.704636
H   42.220448   98.767014   98.442825
H   78.607544    2.237536   19.175070
H   50.863426    1.622202   98.769424
H   32.219376   36.916203   11.414780
H   38.110088   66.881882   60.341732
H   54.180119    8.848745   32.812248
H   26.877142   25.767906    9.651436
H   38.542362   97.659264   85.002037
H   19.002403   85.011360   30.970209
H   56.710670   85.746681   83.672974
H   56.718903   60.526196   17.313581
H   72.642174   69.085793   84.739998
H   23.982132   41.237026   90.750862
H    7.201841   59.844048   49.349220
H   72.017952   21.562067   14.193922
H   69.088272   89.396278   65.150192
H   44.622856   55.303673   48.278339
H   19.578787   69.304749   71.391945
H   17.546015   28.993628   75.379402
H   72.687920   93.699234   38.942787
H   65.588524   81.401421   87.114311
H   46.301258   77.959518   35.894722
H   56.291111    5.349901   28.472258
H   93.327141   52.278717    5.859239
H   46.191845   45.482975   15.962166
H   43.470768   76.189262   63.623310
H   52.175560   73.916443   10.513695
H   28.959322   27.621521   46.650406
H   54.273830   91.410194   74.531937
H   63.698593   43.365070    8.620241
H   94.777420   11.514624   59.673798
H   57.617439   61.615761   48.052345
H   53.979187   85.471825   88.621414
H   66.619942   79.668640   37.169407
H   95.141357    2.190581   36.077354
H   20.762880   33.554787   38.922531
H   64.554932   18.935349   51.557137
H   39.891808   41.143562   67.149513
H    9.509657   47.060165    0.856940
H   70.745354   83.531792   85.709328
H   41.879463   94.151009    3.421470
H    9.903940   81.828278   13.797218
H   13.499541   72.897934   12.478599
H    5.146006   80.232025   99.520149
H   49.994835   96.830223   99.694794
H   91.293221   29.538748   50.537785
H   94.151382   19.399666   27.493643
H   43.876755   70.423836   36.927906
H    8.885123   88.122742   45.677483
H    8.843751   30.021048   74.778740
H   48.544537   69.613548   30.795887
H   54.843739   42.646599    8.162502
H   77.458725   87.425789   67.900528
H    7.950168   50.666843   28.482002
H   52.053024   56.236099   37.527039
H   29.824917   39.296062   37.843227
H   13.952545   50.549332    5.833725
H   79.044456   23.413584   22.096958
H   16.758932   94.994606   75.013954
H    5.195427   88.334839   53.915688
H   29.012768   44.611431    9.004148
H   31.805258   32.971443   69.701050
H   71.538055   27.793575   85.679085
H   75.771187   40.275017   20.280418
H   80.752884   69.452682   58.818371
H   63.637089   25.701395   53.904125
H   49.909153   68.308952   51.966179
H   47.392326   56.633820   93.801689
H   40.788948   71.950157   92.086021
H   39.856663   63.023109   38.329338
H   73.874405   57.505608   17.450722
H   85.767288   23.231764   81.518372
H   10.419318   24.479614   40.548187
H   62.598747   41.022961   63.965405
H   99.357498   53.840542    4.453431
