100
TIME:    9.109, STEP:  9109
H    1.317979   86.683022   90.806473
H   48.907516   98.466278   52.457394
H   36.346233   29.241394   16.414623
H   83.005524   57.359917   40.867455
H   13.574720    2.883751   18.723381
H   86.763306   91.339638   80.841034
H   75.566414   76.421852    2.788838
H    3.936859   76.645706   71.836296
H   29.711266   10.498874   26.707716
H   25.960222   47.176746   64.374916
H   52.958038   32.761276   62.323402
H    8.174568   80.277794   44.540123
H   62.898956   10.633085   19.880424
H    4.058738   76.999397   50.439793
H   91.243904   56.372047   12.849701
H   35.270798   15.022645   76.914124
H   91.615334   84.460274    2.616559
H   95.855698   51.594948   83.763260
H   87.142288   60.489063   43.258450
H   47.101910   12.374193   36.515648
H   23.735741   49.388130   10.010607
H   35.669048   56.176315   43.562775
H   64.123924   20.544691   71.731079
H   72.701126   45.798309   30.560266
H    3.795033   63.772346    3.810202
H    4.656363   57.570175   33.684292
H   76.600288   63.828838   80.704086
H   63.949623   81.617035   67.869743
H    9.237304   75.531822   26.584171
H   50.272163   65.391678    7.528276
H   74.553368   38.877415   88.704010
H   40.905048    0.842007   55.998314
H   11.982065    2.025069   18.407614
H   62.979095   38.937134   88.004295
H   54.257927   69.990883   79.252121
H   64.467255   98.887894   90.789467
H   53.470078   70.943611   26.218771
H   87.500221   92.253166   65.236717
H   60.580212   82.948265   61.582581
H    5.227827   59.430069   54.712555
H   12.716043   68.732132   56.948574
H   32.557083   77.324112   44.991024
H   89.679230   18.130600   59.424274
H   97.705605   65.543678   71.363106
H   66.516586   72.507912   35.593861
H   60.544823   36.651043   20.167643
H   12.907435   20.216909   12.906683
H   56.743587   89.189743   32.190449
H   31.295250   78.042519   81.112946
H   16.981848   69.380943   46.631916
H   42.876125   90.228004   49.451889
H   47.826748   18.491062   76.086830
H   97.811974   74.825806   73.837082
H   65.744110   58.586487   33.770393
H   15.522686   56.874825   77.817123
H    4.941008    2.951940   82.534927
H   73.722107   26.710350   22.329275
H   47.780701   16.654493   78.927757
H    8.686123   23.656675   12.187136
H   57.917568   27.936131    4.528954
H   34.304058   54.959248    4.187745
H   75.621696   43.156784   83.202065
H   92.470535   85.700951    8.838989
H   68.539734   91.383591   79.830994
H   93.874451   33.322994   43.850452
H   41.768532   89.438316   84.779533
H   56.736496   63.281254    6.844116
H   51.144867   38.491402    1.665482
H   10.892332   95.271698   88.931915
H   15.024047    6.166971   82.523575
H   32.774181   75.623253   52.886574
H   23.163485   49.145897   23.732185
H   13.068090   67.740562   28.194599
H   29.684818   72.910378   61.927681
H    1.261456   41.727749   91.952240
H   41.000885   91.374260   83.008896
H   94.074051   37.393528   52.293907
H   59.930080   55.111794   17.505287
H   98.324272   26.762714   19.313189
H   52.811211   12.808666   36.172661
H   89.139275   23.519144   24.415932
H   24.828407    3.547256   24.945341
H   94.038033   59.452915   97.437508
H   76.833076   91.635841   31.450924
H    8.798676   79.097214   64.738266
H   41.648701   43.643059   74.339767
H   75.524361   41.053658   57.895470
H    2.526621   76.164040    1.131843
H   44.723148   86.998055   53.690926
H   60.981808   34.507607   49.840347
H   96.800468   65.288208   25.827538
H   52.272655   80.563461    7.091882
H   69.357986    0.828775   23.417536
H   27.615061   65.805405   41.003414
H   99.100067   33.801029   25.400488
H   46.287659   36.026855   96.957016
H   39.572441   90.425728   13.321093
H   20.694834   37.173801   96.015282
H   74.781334   76.137062   82.063362
H    5.007384   44.881802   20.240795
