100
TIME:    9.134, STEP:  9134
H   99.627350   84.390388   90.783585
H   48.217056   99.820877   54.033817
H   36.775959   31.039928   16.121178
H   83.009720   56.329948   39.497025
H   13.350702    4.887588   18.045605
H   86.375732   91.312553   83.316772
H   74.256065   78.109856    4.743877
H    1.971909   78.808640   69.540993
H   29.096718    8.095185   25.134058
H   25.277296   47.535709   65.353767
H   50.632599   33.767212   59.915184
H    7.220322   81.530922   42.760567
H   61.304794    9.119938   17.396008
H    2.820916   76.922340   52.342373
H   91.547554   54.138924   11.647499
H   34.265625   12.836013   74.838928
H   89.604988   86.113945    4.892408
H   96.390518   50.378441   82.896561
H   87.531769   61.537914   44.575474
H   46.428425   11.843283   38.217766
H   22.252205   46.899231    9.332020
H   38.065823   56.209503   41.433792
H   63.790138   20.341463   71.015823
H   70.378357   46.097382   28.703558
H    2.900927   61.789658    3.994750
H    4.538441   56.833176   31.331606
H   74.444603   62.789524   81.199997
H   61.840286   82.783951   68.696007
H    9.780946   77.800041   25.402473
H   51.230797   64.772934    9.515644
H   75.537178   41.119122   86.726089
H   42.483570    0.151330   53.683937
H   13.743073    0.196008   20.659811
H   64.035385   36.646027   86.951057
H   53.635750   68.098030   80.773041
H   66.640488    0.846020   90.710884
H   55.867805   70.028084   28.188681
H   86.466820   91.795784   67.001015
H   59.524876   82.403526   59.159866
H    2.873116   57.089561   56.679604
H   11.007536   69.590057   57.537563
H   30.450226   77.422150   46.267231
H   89.894379   18.280613   61.229961
H   96.109535   65.963295   73.807564
H   64.347931   71.521812   37.733334
H   60.222290   37.127880   20.269209
H   13.102891   21.576563   13.146770
H   56.745113   89.447235   33.737309
H   32.025955   75.971901   80.115784
H   17.506559   69.761650   44.883831
H   42.874409   87.814445   49.715485
H   49.041729   16.171249   74.445747
H   98.330391   74.970764   72.385208
H   65.165039   58.178505   34.873604
H   13.532082   59.065796   78.029602
H    4.972145    2.925642   81.683868
H   75.307114   25.988991   24.706976
H   45.919128   14.293482   78.283836
H   10.657845   24.713060   10.267866
H   56.267902   29.857784    3.817894
H   35.881245   53.796719    2.238649
H   74.734398   42.924088   82.071007
H   94.167694   83.995018    7.124664
H   70.256348   91.519775   79.152359
H   94.866653   31.326191   46.178562
H   40.232735   88.195488   86.257729
H   54.730728   64.145508    8.051159
H   49.417953   39.921150    2.860626
H   12.138355   93.475357   87.364075
H   15.531783    7.422626   82.470551
H   31.980156   73.922279   52.586739
H   21.104788   48.315819   25.564671
H   11.438023   66.503838   27.553539
H   29.134548   71.328041   60.442238
H    2.465664   41.764561   93.847763
H   41.591972   92.976433   81.326614
H   96.344559   35.229641   52.737366
H   61.104435   53.477196   18.886017
H   99.523232   26.689281   19.592234
H   51.585167   11.446772   34.018883
H   89.628700   23.777781   25.910149
H   26.704380    3.709547   22.853838
H   95.619225   59.871006   99.818260
H   78.553123   93.775124   29.167637
H    7.581406   77.533188   62.314789
H   41.073254   44.561447   76.075836
H   77.194054   39.235954   59.087563
H    2.928654   74.163612    0.872640
H   45.241947   85.606071   53.486458
H   58.771381   33.478973   50.733940
H   97.823570   66.638229   26.355492
H   54.122402   82.443726    7.568171
H   70.960541    1.578929   25.350824
H   30.031195   67.322128   42.689129
H   98.667862   31.561611   25.974886
H   48.352554   35.039612   95.665741
H   37.588036   91.860435   11.883286
H   20.646578   38.410717   95.513268
H   73.590385   76.245018   79.969475
H    6.560204   44.240360   17.832386
