200
TIME:    0.704, STEP:   704
H   23.728865   60.935078   23.273689
H   32.099915   39.652031    8.734019
H    8.412665   89.447357   68.202690
H   33.483200   82.397102   32.366211
H   10.283736   95.489258   46.987297
H   74.523865   40.221306   51.815651
H   10.081756   54.974907   58.632442
H   13.286607    8.922240    8.602498
H    6.271736   80.550049   36.400143
H   94.527542   68.399376   77.770454
H   28.366449    4.506058    7.624505
H   32.696503   54.407669   34.850883
H   22.562481    2.407293   42.274590
H   82.472786   55.164577   64.624687
H   97.219986   75.516487   41.836929
H   15.775677    6.848385   44.313545
H    6.034822   29.449913   92.903847
H   25.544327    5.473146   35.259686
H   80.463531   12.903627   49.314339
H   91.532448   73.332603   19.483784
H   63.653557   99.920731    4.582777
H   79.699196   66.549965   52.693954
H   81.110558   59.167801   38.002785
H   18.436264   92.289528   90.131126
H   23.414291   31.365362   28.853588
H   18.276999   82.928543   91.631721
H    7.881384   68.107063   67.737869
H    5.159180   89.270424    1.952192
H   30.611378   42.426216   35.621384
H   72.081772   33.194393   82.575363
H   12.755703   70.834511   16.762104
H   23.488369   74.381332    5.027086
H   15.911995   18.969645   78.846756
H   81.069862   64.084145   46.400528
H   25.721342   70.628159   30.689341
H   17.904579   39.342545   84.797157
H   99.582092   64.414230   89.438332
H    9.963796   56.757816   94.305328
H   35.897522   29.785561   54.745537
H   85.632919   37.780407   45.571381
H   80.642372   83.548325   16.925545
H   36.434525   33.377090   26.072395
H   68.347366   77.122871   67.557655
H   36.247574   85.769783   35.342976
H   44.630890   90.451767   61.108299
H   34.530190    1.762962   47.734203
H   88.718048    3.479620    6.352105
H   78.819557   65.543526   30.966995
H    5.024888   11.144131   61.500866
H   45.512844   19.895437   86.082581
H   67.170395   64.623192    9.480157
H    3.401066   43.684307   73.517555
H   64.691368   81.152122   13.992308
H   15.500830   91.975449   88.574379
H   57.558762   66.065720   75.767128
H   99.357597   60.918793   93.842072
H    4.106288   18.501320   44.677296
H   72.478012   69.365891   96.928398
H   18.390299   83.440842   18.348759
H   32.371662   93.383705   58.416718
H   48.916771    6.323641   28.679707
H   98.275871   17.524065   52.623268
H   84.230392   34.818298   69.230865
H   35.368584   65.814323   14.027336
H   78.807236   82.996307   36.903553
H   20.538031   34.587761   41.203629
H   68.843117   13.374545   95.421547
H   94.743034   92.504860   96.457954
H   33.026978   12.123542   56.106880
H   42.566006   49.717205   50.957813
H   58.261612   84.617401   85.692719
H   19.099880   11.625672   41.516842
H   92.220352   33.684826   83.958527
H   22.981977   98.765678   74.080971
H   84.794937    8.382659   45.795456
H   65.041908    2.695360   59.845428
H   93.466400   47.223816   65.582344
H    9.369408   14.419127   32.101082
H   15.058202   50.365662   24.661573
H   61.283825   88.079178   72.256744
H   63.061337   22.259977   94.244965
H   47.039242   60.245579   73.512993
H    9.189425   18.755991   76.703667
H    9.543055   77.032204    8.974221
H   22.385086    4.230453   44.632721
H   37.739304   69.539703   18.123825
H   56.651176    3.750982    2.835093
H   71.472847    1.274786   28.943256
H   79.888016   73.186569   78.841797
H   21.120094    6.845320   49.760769
H   21.792542   38.898350   78.690643
H   80.823372   92.606506    8.492191
H   69.302170   11.629036   82.514862
H   39.221287   77.763603   81.845268
H   36.881889   50.649712   87.264854
H   50.056740   38.083382    7.245450
H   85.599785   98.230125   18.312462
H   94.139458   35.648438   52.986759
H   26.503990   65.129959   54.525597
H   75.272179    5.466855   27.363688
H   30.568266   93.255493   90.788918
H    7.825860   83.676468   63.305153
H   32.797684   20.212549   36.986629
H   44.171471   68.796173    8.588702
H   24.723658   21.375015   40.130932
H    5.792708    4.055567   22.166918
H   87.638405   35.858196   54.099808
H   62.017002   52.089622    0.799500
H   84.588432   34.232658   21.569355
H   19.272066   21.590967    7.808199
H   53.299339   92.034676    1.122309
H    4.624877   75.013367   95.796440
H   49.035141   85.659058   83.842720
H   61.652397    9.394081   62.988800
H   48.366127    1.290065   10.503375
H   95.102516   92.224068   99.866638
H   13.497611   14.976295   89.589279
H   38.416988   49.835041   24.703606
H   36.483543   75.134140   60.607548
H   83.027626   55.935604   66.652054
H   45.397346   24.842808   72.315361
H   98.268646   16.488209   61.836784
H   43.422920    2.252930   37.794079
H   97.241180   50.621880   97.545891
H   63.032341   97.463860   77.467064
H   64.721611   75.047241   16.572432
H   83.853188   51.356430   53.135086
H   65.279381   91.209129   38.921398
H   98.177803   35.687954   74.316170
H   90.235062   21.950096   74.406517
H   67.339302   68.618317   21.143398
H   63.890068   90.653427   20.269245
H   90.922615    5.169360    0.826962
H   78.168732   24.899441   55.417767
H   27.348026   92.980255   35.095230
H   49.999802    1.031349   76.845787
H   69.660904   87.746895   78.437416
H   95.176109   49.733341   75.866951
H   58.441406   50.822525   71.440346
H   43.699287   86.836693   82.564667
H   73.588974   49.423584   29.898438
H   35.877701   55.109032   57.063480
H   40.089546   65.301064   83.733734
H   36.451607    9.731667   85.813393
H   62.112118   54.378525   64.241150
H   62.941170   69.969589    7.623569
H   55.705376   94.745811   43.959568
H   29.982643   56.146843   66.162865
H   77.589569   45.419487   93.331787
H   24.252953   93.740593   72.633041
H   59.865692   69.190079   47.841328
H   53.319534   94.270561   33.611618
H   97.731049   14.488857   87.176529
H   22.175461   11.793253   64.486336
H   32.011890   66.133194   69.147331
H   77.276390   44.679417   68.336700
H   64.168198   74.799088   86.249924
H   52.642929   29.215195   20.594707
H   91.145287   99.986008   85.396980
H   58.477589   38.011688   96.047470
H   58.513748   65.558678   71.078850
H   21.818293   20.651730   31.524261
H   85.192253   14.339619   37.039120
H   28.306570   33.810581   51.347382
H   54.511436   37.832687   14.383673
H   19.907990   49.675564   59.765385
H   66.909966   90.062080   57.140583
H   24.037548   52.043587   67.199722
H    0.377845   26.661268   35.761292
H   47.647697    6.958173   85.178253
H   70.500732   11.151855   35.937134
H   30.133539   48.212578   58.882980
H   46.638092   57.516163   77.368362
H   65.512314   63.439720   85.004532
H   49.871948   91.546066   77.414162
H   15.233065   50.167198   23.732050
H   30.651081   67.416260    6.317443
H    5.842360    9.643364   70.813309
H   63.735317   10.592843   63.708057
H   64.228386   59.432396   92.930534
H   72.946503    1.817087   30.931118
H   28.586645   30.672451   86.555252
H   44.270702   89.677887   15.259598
H   61.585678   26.078945   94.260353
H   91.523331   68.209259   76.485214
H    8.974068   40.139053   86.276466
H   47.508728   96.576851    9.546286
H   68.129425   86.878853   41.762581
H   93.180824   63.242558   71.846390
H   58.051254   55.749264   71.565323
H   69.985748   15.672966   75.987984
H   43.849144   97.538818   18.714293
H   14.406936   28.562752   68.435921
H   26.997423   82.049072   42.664295
H   68.971512   33.530178   20.298492
H   76.460953   11.522011   23.209347
H   12.545539   98.211510   19.127913
H   15.424578   88.184380   33.880959
H    5.725764   12.910204   57.265358
H    3.168262   19.272480   91.302383
