100
TIME:    7.985, STEP:  7985
H   77.329338   89.758720   91.835526
H   79.950607   37.559788   81.585464
H   17.025766   48.376526   29.607937
H   82.816864    3.667633    2.476869
H   23.646574   12.790212   49.198624
H    4.190177   92.557350   69.528114
H   34.476559    0.522069   14.890568
H   92.281036   79.405571   75.038124
H   57.341331   18.567795   97.459290
H   56.661140   31.037767   20.364628
H   57.509781   87.536530   70.593155
H   51.077492   23.937160   24.547756
H   34.572868   78.664062   31.579905
H   59.711647   80.463875   64.903328
H   77.591805   56.773270   66.901154
H   80.463364   13.331789   70.216095
H   82.000771   10.117258    0.294404
H   71.820923    6.288968   22.726852
H   69.631241   13.332723   84.042618
H   77.385574   36.243168   59.988533
H   90.435509   61.286228   40.516712
H   27.910067   54.684189   39.281754
H   79.130943   29.681822    3.889241
H   77.136795   32.352020   14.037944
H   43.994331   52.910583   95.510963
H    9.957439   90.705673   39.458389
H   73.524170   10.549174   58.405796
H   58.789742   29.152502   30.713404
H   84.796761   73.553726   79.717155
H    7.174035   93.210403   18.173149
H   30.314886   38.086121   77.631294
H   69.935081   31.894474   60.052620
H   32.809261   84.262047   17.148817
H   15.486844   41.945045   35.355118
H   82.231010   55.093468   10.865065
H   66.760101   10.848283   94.322548
H   45.664173   12.106936   37.652004
H   33.957932   12.821182   85.920708
H    8.021399    7.438437   70.506569
H   11.096054   64.655319   66.278870
H   89.533752   30.167326   30.467619
H   27.281746   72.916336   87.608635
H   80.006134   11.387484   78.237862
H   69.473267   46.670250   61.465435
H   64.015099   16.846233   39.408356
H   75.052422   15.215800   15.601221
H    4.119986   59.089729    2.112479
H   56.674984   77.612900   62.644100
H   98.442085   71.131660   25.948547
H   93.386963   52.270245   25.220844
H   42.953304   98.742882   37.600632
H   93.199158   22.789743   49.871399
H   74.503929   68.308472   39.115425
H   91.779144   76.923309   84.172806
H    5.016946   58.372940   68.264084
H    3.541067    4.134278   20.798553
H    2.467217   59.142662   15.427531
H   31.475782   22.802752    7.879094
H   20.034161   76.163582   98.477371
H   32.091164   41.542233   36.498192
H   63.400585    7.232756   91.822945
H   15.514687   53.618820   34.058105
H   16.161789   62.401031   85.915039
H   91.355339   85.260727   10.344861
H   49.262184   23.095301   39.177582
H   10.817326   45.315269   18.319874
H   46.917267   24.425102   52.578289
H   28.787331   74.207878   47.931778
H   54.874794   76.035164   59.428795
H   92.195946   49.709156   84.907547
H   68.472664   52.103043   66.367165
H   15.722331   86.466209   41.343288
H   86.353882   23.341764   57.016651
H   54.424961   44.048733   28.711485
H   47.116226   40.072689    6.729761
H   14.425727   19.336006   58.639076
H   91.990929   34.678635   32.356010
H    7.129421   28.603313   55.422573
H   44.422173   30.064259    6.768898
H    7.933705   74.038536   33.006233
H   67.134697   11.890847   57.235458
H   40.484337   96.254486   18.979427
H   22.943235   40.655552   90.393829
H   99.505089   95.452637   34.110767
H   63.527130   49.410252   73.696846
H   67.519638    2.355395   96.285706
H    0.454875   22.777931    4.298899
H   84.449791   66.107544   12.785942
H   21.396004   49.579933   62.883797
H   60.358418   80.751846    9.662369
H   50.801807    4.599241    2.090453
H   69.108040   96.028076   85.673012
H   97.307510   67.109947   36.496887
H   18.985601   97.613609   65.215065
H   18.535686   34.482117   99.574158
H   53.449860   80.413330   55.013329
H   28.790308   25.921677   77.963905
H   22.864420   81.556892   18.582304
H   28.325890   71.283363   76.210350
H   35.190151   73.723892   28.519726
