100
TIME:    4.720, STEP:  4720
H   98.128578   89.173347   94.824722
H   70.120491   60.635239   75.717651
H   60.887184   13.479800   67.941048
H   82.268845   38.187065   81.444221
H   52.894440   51.086319   37.725235
H   54.830700   96.094566   46.183865
H    5.595837   80.054977   59.563152
H   48.903603   96.942535   74.819710
H   37.601326   32.484726    2.979053
H   45.854607   84.155571   92.518860
H   61.212128   56.161945   85.095016
H   75.692528   60.279839   56.954140
H   42.874100   76.162300   56.019043
H   21.374439   90.527504   16.433702
H   37.913826   48.417786   23.885735
H   11.742798   98.900467   41.240173
H   44.552864   94.162643    3.068570
H    2.002084   65.156883   35.906200
H   18.783989   76.363983   12.031023
H   65.349480    5.581537   37.692146
H   84.185234   86.326324   29.135681
H   14.891342   50.349854   17.326645
H   22.725227   56.234764   97.304581
H   80.502335   93.290649   56.525612
H   60.769684   11.839386   71.398109
H   25.029898   87.121094   46.570515
H   55.068687   46.272945   93.618568
H   34.282139   76.753357   22.789423
H   13.803144   77.327415   34.054482
H   81.979355   74.019585   58.614937
H    1.815779   45.306812   35.947563
H   63.780895   22.104248   62.310005
H    2.827109   23.144438   23.011831
H   77.532532   41.162842   72.905235
H   63.444901    2.124184   12.144104
H   82.939377   55.119434    4.588172
H   32.508728   31.680126   80.382919
H   68.904030   72.576302   55.517773
H   45.840832   78.577019   86.909454
H   18.622541   70.313408    9.393709
H   12.673336   18.138990   53.546856
H    7.413987   23.693594   24.549944
H   51.896961   91.804382   42.404236
H   77.955215   91.870453   42.232033
H   47.230289   45.663399   60.013813
H   17.193233   52.943592    2.335166
H   78.609665   81.527184   70.774376
H   56.491489   43.984436   60.624779
H    3.002828   41.538906   56.192993
H   24.870205    2.572767   53.540306
H   43.184513   13.957882    3.183159
H   34.514900   25.758280   64.204163
H    6.778368   49.376892   28.738386
H   67.384727   30.193092   40.096275
H   64.981567   72.239021   40.493290
H   99.472000    7.568741   31.946869
H   95.480026   53.353172    4.898680
H   74.594620   31.142229   91.978134
H   62.531876   38.201141   49.126610
H   47.546764   90.582581   29.362556
H   57.442017   59.068584   46.386955
H   31.392668   84.008987   81.789551
H   94.500954   85.198532    9.805901
H   67.154701   67.475006   98.989227
H   19.666582   83.865753   35.122517
H   11.388474    7.627756   25.266562
H    8.873793   11.546033   94.943161
H   54.323112   87.478653   91.845894
H   92.145645   10.637222   64.203979
H   26.013872   85.544922   91.794159
H   72.151054   74.251068    5.527075
H   84.781403   94.877167    2.197631
H   99.237976   84.835915   40.728416
H   26.302792   50.689274   22.706879
H   89.741585   35.368710   59.206142
H   37.242256   10.080027   78.332809
H   95.500107   17.447758   74.524269
H   53.734509   42.091412   75.108589
H   87.854286   39.654598   70.347008
H   68.047455   51.893253   14.288910
H    3.235075   78.112228   62.092175
H   95.471992   75.052750   92.093651
H   16.424555   86.054382   79.453094
H   74.877594   16.059515   32.317848
H   22.504549   53.647118   90.201424
H   42.661930   82.428566   69.554306
H   82.392845   60.170471   48.611389
H   31.930269   27.399641   46.657265
H   53.637314   31.369604   89.587288
H   49.027622   15.081093   92.946472
H   17.184563   28.298637   33.139568
H   27.531099   50.468185   23.464132
H   88.014748   69.143623   84.009384
H    3.433068   99.535049   45.063610
H   74.984657   26.940681   24.546558
H   83.774216    9.344282   23.655022
H   87.951195   38.551647   65.737411
H   24.191076   56.425659   80.505501
H   83.863281   57.196362   49.688171
H   32.388279   57.508411   43.047947
