100
TIME:    7.575, STEP:  7575
H    5.056219   27.357014   92.210892
H   91.274155   15.341260   55.734241
H    9.978266   18.879692   34.421230
H   82.748047   20.560677   24.950745
H   27.320471   79.926994   60.315720
H   10.548724   93.001534   28.923420
H   55.963146   72.838760   82.828018
H   24.506233   43.935230   12.681893
H   67.419914   57.988037   23.267220
H   67.859566   25.150774    4.309992
H   95.646988   71.039185   10.087519
H   66.726593    3.386340   53.732079
H   60.717125    3.481688   72.323433
H   80.012703   81.727608   33.701099
H   72.611946   93.396500   86.620392
H   96.948196   49.191833    4.249440
H   14.970778   82.998032   62.970486
H   63.055782   26.239334   36.938614
H   63.244129   96.132446   62.440517
H   88.433853   44.948536   32.073799
H   14.765472    2.101412   51.643192
H   88.602966   54.139908   74.197067
H   84.605034   33.015236   15.620217
H   15.230852   27.447237   44.488655
H   58.658638   85.424622   92.483009
H   11.890575    2.792088   78.041771
H    8.877821   27.592615   50.269733
H   93.385521   10.015082   17.161119
H   75.881813   36.354939   99.098564
H   91.452850    3.358057   85.579643
H   14.178742    1.321079   10.069115
H   44.047329   43.221149   98.008400
H    3.929154   14.259417   80.212776
H   98.162987   79.519203   52.628220
H   92.434715   86.136253   85.920868
H   31.119122   78.735153   95.611305
H    6.340430   27.123148    5.345746
H   50.902588   20.325047   56.986984
H   25.328548   16.370588   10.238743
H   49.712700    3.036702   34.019493
H   17.553968   16.100477   20.808195
H   61.834206   71.308517   66.675713
H   76.477692    8.928053   48.623089
H   95.655060   39.788536   21.379036
H   99.581047   33.021389    4.322891
H   80.345085    7.397205   13.935534
H    0.914906   36.792976   98.176033
H   56.649960   73.390030   37.275600
H   86.455391    5.089356   42.304550
H   84.778564   46.029781   53.889069
H   42.981457   38.326508   33.277664
H   73.273468   60.835857   76.785156
H   66.001884   65.931152   62.926155
H    1.275482   83.611084   66.080154
H   37.662552   22.441425   64.779434
H    3.030412    4.565558   34.755920
H   76.473343   70.972954   76.432945
H   62.005539   61.522148   18.440359
H   87.697258   58.839497   29.953320
H   59.145683   10.027112   48.159569
H   37.537853   26.299435   23.789688
H   30.066383   57.435043   52.610580
H   88.327385   90.378326   14.029968
H   63.202785   83.027298   21.477200
H   32.986931   55.842449    0.995315
H   36.003082   65.697655   94.076965
H   79.811859   10.250652   32.783978
H   57.108711   50.760002   28.331406
H   34.439232    5.495132   85.141937
H   83.869072   29.117189   85.777145
H   81.491615   79.999008   71.284462
H   49.484142    0.079493   11.291141
H   13.086782   43.621593   67.529114
H   63.449390   69.996643   53.072540
H   27.366076   39.468975   75.643326
H    4.732544   93.059105   86.227882
H   54.754597   70.165840   25.084776
H   87.867599   55.410717   32.778606
H   24.762365   31.268559    2.193340
H   28.039570   96.372826   68.328194
H   59.108116    7.649209   32.730301
H    9.718974   93.595642   53.279110
H   97.010017   33.798862   51.348473
H   71.296318   60.368404   71.557304
H   83.490356   75.058495   13.441606
H   76.953842   87.296707   67.814178
H   73.071907   52.588264   84.748528
H   77.855858   98.914551   17.036964
H   12.886140   72.408455   66.237068
H   96.606598   97.618301   95.005661
H   34.022938   82.459404   93.431931
H   38.772190   65.191742   77.859138
H   71.025620   54.808109    4.790957
H   79.360268   72.739342   37.569347
H   25.625416   71.207962   90.152466
H   19.585571   96.604126   76.190239
H   61.334404    2.393583    1.543212
H   23.655817   61.268772   26.813772
H   47.857445   69.512886   10.551044
H    9.724487   84.246658   68.017319
