100
TIME:    6.491, STEP:  6491
H   78.362625   26.764524   93.203323
H   21.209782   56.603046   87.383888
H   91.341080   40.892082   47.149166
H   82.566101   65.221161   84.369263
H   37.031754   93.039703   89.708237
H   27.361500   94.175911   21.571396
H   12.777438   99.640038   98.057732
H    9.706497   50.155247   12.211204
H   94.066704   62.210205   91.501305
H   97.467110    9.585285   61.866642
H   96.478027   27.421820   14.503876
H    8.096039   49.050831   30.892067
H   29.862625   69.066872   80.043144
H   33.684837   85.068794   51.208851
H   59.445686   90.224724   38.750141
H   40.535385   44.002480   94.230957
H    2.139416   11.300786   64.289680
H   39.874233   78.987076   74.512733
H   46.364521   50.660110    5.334297
H   17.639435   67.966103   58.270073
H   79.091583   10.017223   81.065315
H   84.678833   52.700882   66.509674
H   99.077995   41.831337   46.635864
H   15.950119   14.479464   24.995008
H   97.429634   71.391907   84.477394
H   16.956682   34.769386   80.032341
H    2.352309   72.655289   28.758780
H   84.849930   59.417641   81.331436
H   52.311562   38.005993   50.338684
H   49.886509   30.187767   99.404953
H   71.518700    4.116594   95.831749
H   75.602997   73.170303   98.359703
H   27.574059   93.570320   82.557495
H   52.362267   78.861343   98.296616
H   19.413254   68.210274   19.968264
H   36.888836   93.831383   99.018654
H    2.370773   66.820923   19.930578
H   95.708458   40.165409   80.493095
H   71.086639   39.987724   15.286234
H   51.813290    4.517164   48.733303
H   91.638184   78.904228   95.270851
H   53.187881   67.057602   11.337434
H   67.148834    2.425433   70.324944
H   64.869904   21.593954   15.391578
H   93.609718   75.789200   11.562510
H   94.338371   86.722733    9.531618
H   92.445602   77.840408   87.772041
H   56.586071   62.225174   70.204224
H   54.766151   94.865944   85.545639
H   62.019520   29.529985   29.680822
H   43.055889   42.979630   21.851833
H   20.586128   61.423981   47.942513
H   43.515774   59.645752   25.881128
H   26.375732    1.293376   18.246140
H   23.972080   27.444870   55.558788
H    1.680292    5.705821   71.657837
H    7.753973    2.251203   73.335533
H   42.722076   63.892693   46.362778
H    2.209079   13.030641   13.169065
H   30.679817   26.707859   78.991112
H   69.157860   76.709244    8.307226
H   68.539650   67.524765    1.655402
H   14.734015   64.348915   88.363098
H   88.765060   77.122330   50.911068
H   89.961563   42.418972    0.047127
H    2.595101   19.586082   29.982420
H   66.783401   72.771301   80.447342
H   31.988121   88.764076   76.509933
H   80.413094   83.384476   53.129505
H   61.888451   74.621513   88.064941
H   15.913607   53.753662   84.285316
H   38.754490   36.101456   31.862083
H   83.765564   97.236206   95.317200
H   87.317177   38.603916   17.480356
H   75.127190   37.895390   93.459488
H   79.110008   23.584579   59.166351
H   56.304287   63.989277    5.860433
H   36.939312   26.289305   72.914360
H   72.778908   34.452610   90.101051
H   81.200516   55.424324   61.715721
H   37.891464   96.434036   67.940933
H   28.376738   86.565918   43.967213
H   28.445244   15.670484   48.113960
H   96.720406   67.608055   70.563805
H   36.271889   42.869881   18.522598
H    1.897512   47.480225   92.537827
H    0.673932   31.404213   33.059380
H   60.422142   85.657654   28.276253
H   90.389023   32.763161   75.102791
H   92.446884   42.219395   56.252861
H   89.661095   23.927570   70.539841
H   58.567165   83.664795   57.202744
H    1.539204   22.281162   20.963572
H   74.596596    6.974490   64.477158
H   44.367241   68.306229   65.242432
H   30.051605   39.408539   32.180511
H   47.377068   40.184738   63.886002
H   25.748194    7.634243   48.573822
H   99.496971   64.831917    1.346992
H   42.391575   12.065742   72.442482
