100
TIME:    2.416, STEP:  2416
H   53.937897    0.461900   96.934097
H   34.064857   35.736275   30.400473
H   21.283667   47.720444   94.976204
H   81.882126   33.111900    7.733314
H   73.531158   66.410568    0.197875
H   90.553963   98.590660   18.010172
H   26.348278   24.477219   79.387199
H   29.993462   97.617310   86.364845
H   94.238045   54.004868   48.008976
H    8.818216   51.073540    2.296019
H   75.524597   63.455524    7.028486
H   63.630997   44.792160   20.955374
H   89.580681   15.536232   84.998100
H   35.455040   97.629066   41.099186
H    9.887360   54.220245   34.637108
H    4.381788    0.416786   32.492935
H   29.824646   41.770943   93.324432
H   52.773544   77.210487   15.786591
H   82.894524   79.707993   90.647278
H   27.427643   54.506207   80.825172
H   20.907761   15.696552   91.669250
H   94.004623   47.291260   13.533524
H   53.486946   74.973045   63.225754
H   94.568909   65.657837   27.640610
H   43.173332   94.563477   54.387436
H   35.580982   55.618160   62.719200
H   53.745071   42.047192   47.909260
H   28.687143   69.210426   46.632641
H   63.704361   68.290413   42.966087
H   93.634132   31.044235   75.453789
H   11.141591   38.701778   18.234219
H   18.304726   85.760643   75.602852
H   40.537464   91.716621   15.449315
H   80.182701   52.310745   69.968887
H   20.716629   76.289001   71.845024
H   82.616043   74.274590   12.334641
H   11.525189   16.056787   98.836792
H   64.131218   14.734402   92.932381
H   43.093506   28.775103   10.184065
H   35.633411   86.005470   28.119669
H   70.133141   39.081974   99.264450
H   14.484894   20.288681   16.307199
H   32.051258   77.987976   75.982994
H   25.080927   53.264000   16.958002
H   47.085133   36.567577   62.854713
H   46.917843    8.998280   92.979958
H   60.606358   56.228180   48.648903
H   56.368443   20.258318   18.066277
H   35.651550   32.356213   48.099785
H   76.556480   67.520699   14.686985
H   43.360294   36.394676   78.890762
H   22.545500   39.552372   15.455402
H   58.997101   36.017517   62.553635
H   20.745083   67.790932   38.427155
H   48.423157   70.305328   20.906569
H   96.589188    9.992849   10.380463
H   49.414791   19.834633   85.769081
H   46.156342   48.726395   51.325516
H   80.821419   40.851147   26.005251
H   99.588699   13.489187   94.893806
H   12.103537   66.214912   26.025623
H   13.164623    5.455404   86.038086
H   38.108486   42.400551   67.811203
H    8.941320   54.936935   61.549488
H   28.216591   67.883118   20.558214
H   52.926491   22.166389   89.038124
H   93.727913   31.890738   83.706375
H   13.476271   55.710999   81.701370
H   77.316032   76.187981    8.704316
H   79.331360   69.662178   96.645721
H   45.314095   31.015455   33.168850
H   74.756287   71.342712   33.509613
H   49.464203   98.802605   99.797844
H   77.022148   96.489761   59.618492
H   78.655907   32.081600   84.546860
H   82.774254   62.417038   33.363728
H   86.312225   17.143728   33.778172
H   45.488400   92.744194   47.867504
H   77.367859   46.422176   44.634552
H   81.040108   77.374359   12.780566
H   58.161404   54.276287   24.387192
H   22.598373   60.005875   84.752785
H   70.662613   47.583252   60.011936
H   16.368671   18.901827   42.754913
H   34.690887   97.761200   13.548236
H   95.684631   97.797462    9.557620
H   28.513906   27.690048   38.747589
H   94.847992   11.863594   70.621101
H    5.820821   59.653038    8.433886
H   52.732197    9.873245   10.584781
H   22.895325    3.889354   84.483231
H   57.049900   77.207329   79.557671
H   40.298771    0.025986    5.823280
H   80.743568   59.782299   89.717079
H   14.819546   33.319160   71.603996
H   93.473251    0.326769   42.659515
H   70.831680    6.329846   98.242912
H   15.735862   36.808472   17.378380
H   93.620934   47.264721   42.673042
H   89.283066   16.646351   64.990387
