100
TIME:    4.733, STEP:  4733
H   97.249428   87.981178   94.812820
H   69.761452   61.339729   76.537292
H   61.110641   14.415038   67.788506
H   82.271027   37.651482   80.731697
H   52.778000   52.128326   37.372742
H   54.629063   96.080482   47.471348
H    4.914517   80.932739   60.579769
H   47.881828   98.067261   73.626152
H   37.281761   31.234833    2.160727
H   45.499336   84.342232   93.027863
H   60.002899   56.685032   83.842743
H   75.196419   60.931465   56.028770
H   42.044540   75.376183   54.727295
H   20.730797   90.487434   17.423044
H   38.071922   47.256561   23.260838
H   11.220058   97.763443   40.161072
H   43.507484   95.022552    4.252012
H    2.280073   64.524300   35.455517
H   18.986469   76.909286   12.715876
H   64.999168    5.305464   38.577248
H   83.413795   85.032196   28.782841
H   16.137665   50.367111   16.219574
H   22.551659   56.129036   96.932648
H   79.294495   93.446564   55.560074
H   60.304718   10.808388   71.494118
H   24.970636   86.736862   45.348095
H   53.947632   45.732502   93.876442
H   33.185284   77.360153   23.219179
H   14.085837   78.506889   33.439949
H   82.477844   73.697838   59.648415
H    2.327430   46.472500   34.919044
H   64.601723   21.745110   61.106529
H    3.742832   22.193331   24.182974
H   78.081802   39.971466   72.357552
H   63.121765    1.141462   12.935677
H   84.069458   56.137638    4.547272
H   33.755547   31.204002   81.407272
H   68.366661   72.338463   56.435108
H   45.292057   78.293755   85.649643
H   17.398088   69.096443   10.416525
H   11.784912   18.585012   53.853130
H    6.245584   24.277033   25.160608
H   52.008938   91.882339   43.343193
H   77.125061   92.088257   43.503151
H   46.102688   45.150528   61.126240
H   17.025517   53.191547    2.388012
H   78.711227   82.234154   70.899147
H   56.492184   44.118332   61.429146
H    3.382807   40.462284   55.674370
H   25.142857    2.770636   52.631104
H   43.183521   12.702782    3.320204
H   35.146690   24.551977   63.350723
H    7.048032   49.452271   27.983362
H   67.083611   29.980942   40.669945
H   63.946503   73.378426   40.603878
H   99.488266    7.555066   31.504318
H   96.304230   52.978065    6.135109
H   73.626602   29.914503   91.643295
H   63.557121   38.750412   48.128540
H   46.688938   91.581741   28.992805
H   58.262054   58.464069   45.373413
H   30.931322   83.887985   81.201401
H   95.383476   84.311447    8.914452
H   68.047340   67.545822   98.636337
H   20.182577   82.827515   36.333134
H   10.589909    6.981510   26.035223
H    7.830746   11.995452   95.570786
H   53.425117   88.222122   92.467369
H   92.793503    9.703125   63.388626
H   26.277250   86.198730   91.766785
H   71.738258   73.366562    5.371124
H   83.709442   94.445724    3.149438
H   98.390366   84.192818   40.395065
H   26.016651   49.866558   21.934498
H   90.368416   35.387257   60.191616
H   37.549622   10.913206   77.458023
H   96.680374   16.320999   74.754173
H   54.345272   41.241322   75.826469
H   88.477745   39.616413   70.492012
H   67.409912   51.185192   13.168970
H    3.489465   78.246719   62.869167
H   96.447350   75.137650   91.006615
H   17.246874   86.271790   80.691086
H   75.772018   17.171991   31.130539
H   21.871519   52.833923   88.941216
H   42.362698   82.906029   70.457062
H   83.261086   59.225266   49.231277
H   32.139526   26.358873   46.522079
H   53.907089   30.645823   89.480965
H   47.878201   14.546204   93.411240
H   17.716576   29.000599   33.414104
H   28.492968   51.445923   23.711790
H   88.848076   69.533806   85.014694
H    4.689591    0.323569   45.940083
H   74.759911   25.776184   24.845245
H   84.847961    8.830940   22.983559
H   86.919304   39.297695   64.989777
H   24.238783   56.536346   80.297417
H   83.243988   57.252399   48.599251
H   33.195721   57.174862   41.795574
