100
TIME:    2.282, STEP:  2282
H   62.999908   12.750236   97.056778
H   37.792305   28.470762   21.947775
H   18.980337   38.079788   96.548561
H   81.859634   38.632530   15.078558
H   74.731384   55.669880    3.831011
H   92.631355   98.735832    4.739485
H   33.371136   15.428513   68.908226
H   40.525597   86.023987   98.667671
H   97.532021   66.888382   56.444294
H   12.479723   49.149498   97.048973
H   87.988953   58.063709   19.936026
H   68.744812   38.075394   30.493284
H   98.104942   23.643394   98.317131
H   42.090019   98.042091   30.901356
H    8.257240   66.189789   41.078865
H    9.769939   12.137130   43.615982
H   40.598053   32.909309   81.123840
H   49.909973   83.726875   20.432610
H   80.806908   74.087173   83.587006
H   31.037521   57.351376   71.701820
H   28.859512   29.037052   95.306732
H   81.157913   47.113373   24.944870
H   55.276039   76.062859   67.059525
H    7.019025   64.050720   37.593079
H   47.966057    5.191216   53.398834
H   36.195408   59.610394   75.279549
H   65.300453   47.617916   45.250156
H   39.993340   62.955761   42.202847
H   60.790695   56.132759   49.300499
H   88.495857   34.360703   64.801018
H    5.869849   26.684980   28.837406
H    9.844034   89.463554   88.007912
H   31.098259    1.520787    3.377537
H   74.520988   64.591080   75.614243
H   24.047920   86.418335   63.684753
H   70.965469   63.748562   12.795205
H   98.672882   20.964525   88.278076
H   69.670250   17.186993   83.475746
H   48.750107   31.694391   23.169302
H   48.254185   98.549568   17.576799
H   79.291252   34.484516   96.107468
H   26.528046   14.274335   10.011906
H   30.897039   77.184418   66.303490
H   33.637489   51.017921    3.856220
H   58.708103   41.854092   51.388161
H   48.646618    6.442432   92.436073
H   59.558460   48.940948   47.361778
H   56.361286   18.878672    9.775108
H   31.734968   43.453701   53.445595
H   73.747093   65.482155   24.058765
H   43.370518   49.331352   77.477890
H   16.033712   51.987080   24.252628
H   56.217361   35.240540   70.335869
H   23.847881   69.976692   32.513947
H   59.091263   58.558178   19.769728
H   96.421524   10.133677   14.942139
H   40.920177   23.701118   73.024605
H   56.134369   61.380905   54.776932
H   70.252480   35.189434   36.292747
H    8.431105    3.189124   98.705086
H    3.650583   72.447090   36.472904
H   17.920033    6.702913   92.100555
H   29.019039   51.538216   77.004074
H   99.739685   54.208008   65.187660
H   22.897873   78.584961    8.079034
H   61.158363   28.827950   81.114998
H    4.479021   27.258009   77.237015
H   22.732597   48.047546   75.295395
H   70.638115   85.816368   17.108742
H   76.616028   62.922760   96.927887
H   49.569069   40.132729   34.776989
H   85.805725   75.789886   23.698660
H   58.201111    5.430614    3.233813
H   79.970573    4.969415   67.582512
H   72.194725   31.890715   74.388901
H   79.607048   53.828369   42.379734
H   74.146393   28.758009   31.408262
H   39.192837    1.505739   40.466793
H   70.941437   46.815777   43.138870
H   87.611702   84.671814   24.324745
H   55.539104   52.889996   16.378700
H   12.543758   59.130753   95.957619
H   62.185162   45.346375   47.249058
H    7.150475    7.435275   54.994354
H   41.215454    6.142933   26.538025
H   98.768005   92.875923    0.252117
H   19.564352   37.432938   32.357971
H   92.690857   22.591919   72.015572
H    3.039676   67.114067    9.530088
H   64.580032   15.386719    5.794809
H   17.411499   96.653549   81.653397
H   47.134235   67.131157   77.003868
H   31.700920   96.010239   95.456619
H   67.792580   51.653683   80.681648
H   17.136677   45.322441   68.524712
H   82.405411    5.618130   49.580750
H   81.468094   98.639992    5.949438
H   15.243861   35.667542   19.522736
H    0.004418   46.687099   53.897301
H   80.961227   20.088055   77.896393
