200
TIME:    0.555, STEP:   555
H   19.150484   61.429577   20.725882
H   30.771893   37.476803    2.685010
H   11.535542   82.925652   60.863640
H   28.460707   80.655556   36.262524
H   11.865707   91.712875   49.129559
H   79.371094   44.265400   56.225788
H    7.923011   55.080627   55.748432
H    9.947600    2.488626   13.891224
H    0.221012   82.783821   40.034996
H   99.772644   70.486504   83.647606
H   23.173071    1.323243    2.915963
H   32.080368   50.430645   27.751297
H   18.905460   97.462059   48.381371
H   89.515137   54.535938   57.444790
H    4.413638   74.369476   42.203541
H   20.118736   12.987564   47.527790
H   99.025909   22.471506    0.138308
H   29.082270   98.309975   37.912361
H   75.506035   18.297850   47.120922
H   91.058411   75.378807   25.259762
H   61.865402   92.482780   11.408998
H   83.016319   60.854698   58.435829
H   85.572418   60.251152   41.577957
H   15.280280   90.931076   90.598343
H   16.938057   25.372828   34.170307
H   18.400339   76.315895   96.552841
H    4.995882   65.117332   61.747040
H    1.739440   83.123856    1.560127
H   24.335785   46.955147   36.493862
H   78.814919   29.202789   87.729523
H   12.950234   64.609505   16.579935
H   26.197884   70.889145    1.358510
H   19.512177   15.763631   77.026772
H   86.001213   63.921585   43.796165
H   32.871937   76.784958   31.822994
H   22.771702   42.739811   83.088577
H   95.305527   67.630180   88.319740
H   17.333941   52.903564    1.004419
H   41.412041   35.120918   51.433529
H   87.061852   38.393131   51.391693
H   80.598038   90.508827   11.979868
H   29.018175   36.501530   30.490774
H   71.030167   80.545715   62.024944
H   36.579514   78.533043   30.014214
H   39.539822   85.905785   55.731331
H   36.626980    5.640679   46.113724
H   85.910202   10.779550    3.085498
H   82.447021   65.545799   36.323502
H   99.262489   16.798351   61.393440
H   50.844910   19.223032   92.386024
H   70.714874   66.509109   15.385017
H    9.096759   41.119732   70.314110
H   60.672184   85.411636   12.046283
H   17.718435   88.831116   86.367889
H   63.865616   69.379433   80.585938
H    1.267578   64.589935   88.963013
H    4.531515   17.937477   46.275608
H   70.850143   65.902122   99.618019
H   21.534348   80.562515   14.745117
H   35.817810   94.220375   61.171135
H   49.399334    9.230671   33.033222
H   95.597618   17.171095   51.480804
H   80.125481   31.731918   74.257706
H   31.758188   65.601746   10.700550
H   76.412041   80.775040   30.810471
H   26.383068   28.799122   38.525375
H   74.408791   16.517576   92.343147
H   95.577431   92.166100   93.508011
H   27.727081   10.110021   57.992798
H   43.423706   47.120232   50.965771
H   58.326977   82.040321   81.707169
H   23.287493   15.542021   42.559837
H   87.491348   31.108883   88.947853
H   18.127644    2.040772   69.743019
H   82.980637    5.970696   52.801430
H   61.275757    7.955737   60.819080
H   94.096176   41.676899   67.689934
H   14.888047   11.705917   37.196129
H   13.925407   43.727356   27.961796
H   63.529533   88.910164   79.322968
H   56.737431   24.778229   96.457138
H   40.487411   62.925537   78.119225
H    9.770746   17.121586   81.063217
H   14.401936   72.159966    4.118097
H   27.691006    2.654835   48.855289
H   33.541744   74.752975   21.225529
H   49.973164    3.440499    2.493491
H   72.711937    6.820409   23.323301
H   75.327255   72.823936   78.305237
H   21.866390    0.166314   51.400005
H   28.038294   37.612083   79.353386
H   81.861252   91.299210    5.241062
H   62.223587   13.309481   86.758461
H   45.902710   83.116699   77.753998
H   33.106644   52.665222   81.059174
H   56.227180   34.752048   14.251032
H   83.578590    3.383937   11.895431
H   98.235275   33.333385   51.576015
H   29.880226   66.622551   53.997562
H   72.681458    3.045869   27.327311
H   23.920378   89.135803   83.772713
H    2.285621   81.422234   64.127045
H   29.709051   25.658009   34.904617
H   37.012032   68.521072    2.671471
H   24.921173   23.333118   35.300186
H   99.893616   11.350567   29.143051
H   80.580139   34.008087   54.793243
H   62.895164   46.368778    6.561071
H   80.801819   36.113461   14.364445
H   14.485656   23.668432    7.078955
H   51.338963   93.329468    1.017476
H   98.642311   71.266541   94.099228
H   51.623020   83.930016   87.083679
H   62.157127   12.606337   66.830963
H   53.338402   95.085556   15.727873
H    1.183176   96.582481   93.144859
H   19.623775   12.878225   87.852280
H   39.172947   42.501106   27.681969
H   30.825165   69.540047   67.971344
H   79.095505   52.961788   61.093494
H   43.842232   23.852673   77.197830
H    4.697501   20.017910   57.453930
H   39.830696    8.537181   33.373711
H   99.436302   55.983501    4.070879
H   67.490791    1.152814   82.395004
H   59.262798   70.970749   19.449337
H   87.556816   50.660721   58.889465
H   68.538528   90.040520   37.662983
H   96.344177   41.081406   77.711731
H   83.013100   22.656321   71.868088
H   61.324600   73.938446   15.449268
H   69.609207   89.175613   16.755459
H   91.409157   97.920319   99.718330
H   85.474815   21.079292   53.584141
H   19.987377   95.674423   41.942055
H   53.968300    1.222577   79.040909
H   69.414223   87.367210   71.019928
H   93.905190   54.385612   78.221222
H   54.546799   48.738808   71.475586
H   43.618576   93.982491   86.704819
H   66.212410   53.805302   25.085312
H   42.737030   50.581806   53.590050
H   44.879368   62.558853   88.759438
H   43.279106   15.125260   83.344307
H   55.108418   59.320107   59.368916
H   57.481785   67.402740   14.759708
H   52.181358   95.398323   45.026436
H   34.051178   61.693192   67.017723
H   73.606293   51.640514   94.813011
H   19.503202   92.113861   78.208946
H   65.117165   66.659607   48.966171
H   47.047352   98.393661   38.280941
H   90.809196   20.060215   92.406853
H   18.236803    8.373109   68.168365
H   26.103477   62.197922   66.452026
H   72.853180   44.309963   63.752102
H   62.608532   70.330406   84.485641
H   50.524540   31.605843   17.103941
H   97.964828    0.547429   90.922867
H   60.148087   44.091187   90.329468
H   57.050144   71.612030   75.040527
H   28.814320   21.423887   32.815075
H   78.778542   20.836031   37.101074
H   22.837238   29.433411   57.721874
H   55.938095   32.776859   12.919642
H   17.340857   54.416504   60.579887
H   69.475677   92.472054   55.561028
H   23.907387   45.264400   61.038380
H   98.353165   27.145821   36.113125
H   40.848049    8.082590   86.856140
H   73.347229    9.379899   35.949638
H   35.280983   53.746990   58.425426
H   43.759197   63.919075   81.560806
H   67.347076   67.003433   81.547585
H   56.797211   92.666931   84.420135
H   10.632789   49.362358   23.588955
H   32.181755   62.761295    0.085030
H    4.521777    9.501266   68.908066
H   67.545845   14.056753   65.450645
H   71.316208   57.834084   90.828629
H   75.666817   96.477524   34.395367
H   25.581284   30.490566   81.115761
H   51.131737   89.835899   12.307381
H   58.340740   25.803276   88.778801
H   89.596489   74.671852   77.099075
H    5.854837   38.881775   85.530739
H   42.320465   99.128922    6.244793
H   75.287727   80.567451   36.548740
H   97.496040   62.578110   70.143494
H   55.341740   56.559788   69.682816
H   62.868279   20.602612   77.052010
H   45.070614   93.489609   20.612146
H   11.097343   25.017988   65.022171
H   29.600365   76.102577   39.661491
H   74.084747   40.185455   20.785887
H   76.097183   11.156394   25.250719
H   11.555120   94.148659   14.098798
H   19.754875   91.145691   38.083065
H    7.712713   12.493290   63.929161
H    4.722331   24.320635   93.372459
