100
TIME:    3.528, STEP:  3528
H   78.738190   98.485840   95.916031
H    3.131891   96.026749    0.545229
H   40.397865   27.722050   81.927986
H   82.068771   87.295952   46.781963
H   63.571075   55.542263   70.046158
H   73.314705   97.385948   28.135412
H   68.066338   99.564079   66.347130
H   42.592453   93.819229   84.264763
H   66.902962   47.090622   78.012550
H   78.430168   67.040215   45.843689
H   72.089066    8.199303   99.915047
H   21.186111    0.531278   41.801750
H   18.846661   48.258545   74.473961
H   80.395226   94.201576   25.722317
H   23.414917   54.892014   81.185158
H   59.671356    3.157221   40.186867
H   40.406441   15.321197   94.556107
H   76.532433   23.134193   77.234070
H    0.218556   26.357019   49.229984
H   97.470329   30.895350   56.535271
H   54.920197    4.993155   61.484291
H    0.613144   48.767456   18.836456
H   38.640144   65.929222   31.411098
H   91.252052   78.994507   45.053997
H    3.403259    6.370537   62.594887
H   30.480902   22.487364   58.490692
H   57.856281   95.821609   69.973549
H   34.859653   21.114807   83.388847
H   87.883438   69.179764   90.402382
H   36.271713    3.521544   63.854431
H   54.905682   38.418140   30.254814
H   88.517372   55.034485   72.659431
H   18.864698   10.357277   15.627057
H   27.168205   50.402565   23.121670
H   93.073929   92.230247   39.558464
H   79.303642   61.629192    8.508847
H   18.180450   75.332504   86.458000
H   18.173981   94.384285   71.401741
H   96.153442    4.549364    2.423191
H   30.895596   81.903946   15.609564
H   94.138443   77.236954   25.463850
H   14.544640   70.198334   68.549698
H   41.629566   84.656311   56.303905
H   54.072174   71.899506   25.683409
H   50.627254   92.695251   58.011410
H   32.571590   30.207996   97.493385
H   69.297165   16.702381   59.330116
H   56.427830   31.707323   86.870598
H   68.154404   40.260239    3.739661
H   99.870201   84.437569   36.911190
H   43.275455   29.038212   90.615494
H   76.587112   36.367050   42.455830
H   82.058144   42.465271   97.968147
H   94.994835   49.645668   87.497955
H   59.888748   67.769958   30.353952
H   97.980545    8.823355   72.525360
H   19.912210   87.747581   91.529518
H   63.353996   43.711792   22.682533
H   68.521675   87.834915   40.636768
H   26.207451   98.960876   63.265877
H   82.249397   14.504464   39.324879
H   73.698997   95.103958   35.723869
H   13.575791   66.538750   91.544914
H   85.301140   60.985947   31.355335
H   72.356285   79.068916   24.116610
H   84.614632   66.885506   54.786697
H    4.510093   70.332642   37.394817
H   36.662788   19.307398   34.861401
H   32.737297   96.286758   38.962902
H    1.864173   25.590361   94.304169
H   10.001875   55.354836   19.827568
H   83.067184   34.437805   14.924964
H   76.959122   43.796200   71.291985
H   52.548733   26.120190   93.532799
H   32.271023   33.668087   68.844276
H    9.059773   33.684097   58.538799
H   87.274574   20.762695   53.443821
H   97.732178   20.032854    9.277166
H   30.693205   43.155880   57.046478
H   26.505684   16.810829   16.980728
H   79.916367   65.780441   90.849472
H    6.033608   67.268082   91.767944
H   41.015484   66.145996   65.924469
H   92.871078   14.057417   41.188248
H   80.544724   28.205929    5.752422
H   70.097229   38.643639   86.778137
H    2.781872   46.838585   91.771881
H   12.745974   22.833954   59.052711
H   28.900417   97.739311   99.336311
H   54.416592   64.126297   50.333786
H   68.402893   63.931736    7.966714
H   39.330162   60.830299    0.750322
H   11.606040   33.374680   91.830101
H   88.222237   27.231533   64.692131
H   95.592201   33.712994   97.157463
H   85.319901   56.414192   85.223015
H   82.566498   70.145317   34.291374
H   19.816748   46.276489   99.585213
H   40.647545   52.058117   49.530533
H   58.347294   88.099495   57.877090
