100
TIME:    9.941, STEP:  9941
H   45.052399   10.384976   90.044754
H   25.929840   43.553036    4.916163
H   50.647503   89.099648    6.647234
H   83.145172   23.081747   95.261978
H    6.119398   69.571976   96.165337
H   73.864868   90.438271   63.237267
H   31.962677   32.602257   67.852325
H   38.543304   48.624126   95.443611
H    9.259117   30.505371   74.337837
H    3.232453   59.123035   96.951088
H   75.567352   66.238815   82.179085
H   76.421959   21.980804   85.318108
H    9.845060   60.272270   37.198746
H   62.862610   74.434944   13.754032
H    1.349575   82.053711   72.835960
H    1.815905   42.252792    7.850699
H   24.711037   39.490273   78.356796
H   13.649726   11.109789   54.921509
H    0.104200   95.389114   87.103790
H   24.688335   94.704559   93.162132
H   74.363190   66.561043   87.426132
H   15.433701   57.280807   72.710312
H   53.015152   13.777971   47.951103
H   95.395416   55.751434   68.770294
H   74.037460   97.788666    9.951572
H    0.731594   33.042831   55.390102
H    4.855045   29.240713   97.207993
H   93.749245   20.451984   95.367790
H   27.328716   51.017124   87.256088
H   82.175484   44.799881   73.669685
H    7.295635   13.484837   22.878815
H   93.438248   77.850998   78.975929
H   70.589149   41.151138   93.360741
H   98.132416   62.689354   52.952538
H   33.551872    6.996755   29.871664
H   36.791050   64.057632   88.174232
H   33.270523   40.474861   91.777359
H   53.110630   77.031487   23.950058
H   25.458630   64.819359   80.955894
H   26.862694   81.539810   20.171465
H   55.854340   97.283890   76.550133
H   62.440231   80.592392   87.455070
H   96.839386   23.123032   19.521763
H   44.586094   79.508522   52.710575
H   94.319580   39.639774    6.774980
H   49.810936   52.520184   23.547770
H   19.413029   65.468323   20.895823
H   56.794369   97.759079   83.669937
H   55.613159    9.140173   47.900604
H   34.444252   82.050865   88.458321
H   46.635258   10.190529   52.359253
H   88.261322   41.288170   21.470984
H   15.068989   79.650024   25.514198
H   46.478401   45.008850   70.485237
H   49.277901   29.786261   84.888412
H    5.977262    2.076756   54.211685
H   26.468399    2.702810    1.459184
H   85.828812   38.082603   57.498070
H   74.307060   58.815590   48.314854
H    3.016314   91.886002   80.864906
H   86.790070   16.268991   39.324619
H   46.092400   35.412643   45.557350
H   48.983784   28.973387   51.807846
H   25.670395   95.915817   57.244133
H   26.897579   66.872627   21.330572
H   90.658813   48.076988   33.974361
H   89.983040   92.048676   47.014050
H   93.672752   86.073433   41.439896
H   52.361374   35.489471   36.750866
H   31.921509   47.953968   80.758926
H    6.351440   19.009808   42.908058
H   54.649178   21.520897   84.716705
H   58.820755   26.587713    6.860126
H   11.371830   20.254787   12.493387
H   41.338127   42.952847   55.034870
H   60.672272   44.698017   27.026482
H   69.637642   65.382492   67.050896
H   99.018288    0.712297   63.455971
H   38.220078   24.318867   28.599810
H   12.009877   67.485817   64.495216
H    5.426851   32.126568   74.143471
H   87.260338    8.948457   55.338951
H   46.663910   73.366982   76.673996
H   34.074230   62.832230   55.459877
H   68.287933   27.050941   84.085892
H   22.497822   74.204903   32.116550
H   31.091829   80.560158   97.568321
H   15.906174    9.588904   92.510910
H   61.988773   40.672859   46.886238
H   87.420959    0.274698   79.582443
H   30.849997   10.215810   43.397850
H   13.832232   43.137360   22.942026
H   22.690632   25.794065   87.757378
H    4.204662   15.992776    2.968987
H   84.716278   59.276337   44.518532
H   15.007476    3.173660   53.983383
H   73.532585   38.171204   65.472015
H   19.088877   78.340561   79.308250
H   35.146568   79.729836   12.374088
H   56.683990   23.533375   40.092083
