100
TIME:    6.120, STEP:  6120
H    3.452105   60.786980   93.542984
H   31.454796   36.497967   63.992588
H   84.961121   14.201358   51.505314
H   82.503830   80.505890    4.704074
H   40.354767   63.302414   99.767853
H   33.115917   94.577843   84.830589
H   32.221462   74.590065   69.045052
H   38.866364   18.060146   46.276257
H    3.186637   97.880234   14.854321
H    7.601366    4.257815   47.340488
H   30.987534   12.493900   50.239700
H   22.257057   30.454411   57.300621
H   53.536972   91.501457   16.907646
H   52.054817   86.212318   22.974560
H   54.939522   23.364258   56.590816
H   55.452148   76.451393   25.027725
H   31.973213   86.761299   30.516088
H   31.940329   97.040039   87.374550
H   40.587460   35.095161   85.787537
H   27.633949   75.846230   33.010643
H    1.107251   46.952488   91.136253
H   49.110703   52.208374   98.103775
H    4.031785   44.848656   57.250259
H   50.422184   10.041231   52.549618
H   10.698432    0.812263   81.737465
H   18.647909   45.737595   14.920464
H   34.344208   88.075882   21.396635
H   16.154224   42.100609   69.069687
H   44.244621    4.346543   67.876495
H   35.660389   39.369926   69.911087
H   56.917580   70.847069   25.184013
H   52.177738   83.422394   32.704979
H    1.441023   20.713884   49.134888
H   36.686928   12.861173   13.925550
H   28.645191   96.294044   97.393250
H    4.639044   64.773415    0.184913
H   66.785774   80.407349   90.697487
H   11.042641   46.955791   54.311970
H   86.744995   48.071648   51.238655
H   86.757721   39.249409   19.542906
H   16.993011   66.172615   86.530251
H   84.453644   65.602722   92.396660
H   63.955982    0.199840   43.527878
H   88.561234   15.366842   79.116661
H   25.791424   90.428574   79.815048
H   99.127586   79.646469    8.024374
H   89.547165   57.664566   84.211266
H   56.566257   58.403992   47.248829
H   43.922485   25.591614    0.343570
H   54.232800   23.881712   55.622276
H   43.081364   78.796844   17.941490
H    2.553644   95.848938   72.296181
H   35.819630   57.494568   47.429363
H   34.966316    7.347119    1.875910
H   53.511620   94.932144   52.402775
H    1.218212    6.096077   84.287552
H   84.233177   12.956853   38.050453
H   70.347809   98.928688   55.918564
H   72.947479   97.353539   41.649681
H   55.160858   98.190781   89.543236
H   45.755238   93.964005   37.232349
H   81.707161   70.977982   18.442635
H   89.547264   89.664955   13.803680
H   63.290436   75.101349   60.984837
H   75.237274   72.050766   65.497978
H   25.384926   38.029655    8.045747
H   96.548996   59.944347   62.535904
H   57.615517   67.546608   58.773991
H   61.923916   10.042152   76.397583
H   54.373459   55.961601   88.846161
H   27.695580   78.996109   88.734871
H   69.344254   48.414154    4.699138
H    7.955441   15.586792    4.829063
H   95.486015   62.082958   39.523399
H   57.239468   37.366085   65.335587
H   70.341103   99.806816   84.130859
H   22.610935   96.104836   99.283180
H   19.509060   50.549232   52.425560
H   54.987782   35.542355   85.962852
H   99.395004   75.634132   93.677788
H   30.631220   92.595871   45.766758
H    0.535981   84.159851   75.002922
H    4.977570    9.466723   12.780827
H   71.194908   35.861107    4.450300
H   54.336174   66.076942   54.487000
H   10.436893   33.851341   66.774567
H   75.895683   58.378929   15.368719
H   54.455437   15.344725   32.122910
H   82.690048   53.420189   78.137093
H   25.248198   57.484310   42.991943
H   74.478264    3.894741   62.704998
H   31.116922   55.761673   50.134972
H   77.757324   11.148786   92.273575
H   38.741749   84.466499   39.461151
H   50.781166    1.536487   56.716953
H   99.408463   54.059235   51.343033
H   76.825645   18.894548   85.222351
H   26.464312   89.276291   56.020882
H   17.170166   63.231213   32.423096
H   19.348429   21.586147    8.180991
