100
TIME:    2.149, STEP:  2149
H   71.994293   24.946976   97.178543
H   41.491936   21.259729   13.558231
H   16.694197   28.511261   98.109184
H   81.837311   44.111961   22.368771
H   75.922653   45.009342    7.437035
H   94.693245   98.879921   91.568291
H   40.341175    6.447551   58.507454
H   50.979134   74.517181   10.879364
H    0.801424   79.675751   64.816566
H   16.113905   47.239815   91.841484
H    0.360291   52.712132   32.747211
H   73.820389   31.408754   39.960442
H    6.565088   31.690041   11.536158
H   48.675484   98.452034   20.779629
H    6.639392   78.070007   47.472549
H   15.117966   23.769844   54.656021
H   51.291061   24.113808   69.014297
H   47.067772   90.194633   25.043957
H   78.734871   68.508301   76.579422
H   34.620461   60.175312   62.646553
H   36.751923   42.277996   98.917068
H   68.407074   46.936813   36.271057
H   57.051781   77.144539   70.864685
H   19.376167   62.455601   47.471275
H   52.723015   15.739120   52.417610
H   36.805248   63.572834   87.746269
H   76.768700   53.147068   42.610897
H   51.215012   56.747768   37.806110
H   57.898773   44.065834   55.587639
H   83.395927   37.652420   54.227749
H    0.637380   14.757578   39.361111
H    1.446473   93.138832    0.320396
H   21.729954   11.251427   91.395844
H   68.901527   76.779770   81.217468
H   27.354351   96.472076   55.586357
H   59.401836   53.300098   13.252332
H   85.915955   25.835638   77.798157
H   75.167946   19.621281   74.089684
H   54.364494   34.592346   36.057793
H   60.780773   11.000728    7.112608
H   88.381020   29.921137   92.974045
H   38.481323    8.305053    3.763662
H   29.751432   76.386856   56.696991
H   42.130608   48.788605   90.851852
H   70.244881   47.101154   40.006859
H   50.362492    3.905659   91.896248
H   58.518383   41.708099   46.084259
H   56.354183   17.509321    1.545895
H   27.847616   54.468372   58.751511
H   70.958672   63.458553   33.360607
H   43.380665   62.171486   76.075562
H    9.570520   64.328964   32.984203
H   53.458366   34.469360   78.059837
H   26.927525   72.146141   26.645330
H   69.679214   46.898151   18.641371
H   96.255112   10.273453   19.469772
H   32.488956   27.538750   60.375237
H   66.037933   73.940979   58.202591
H   59.762825   29.569754   46.503769
H   17.207546   92.966629    2.487782
H   95.260849   78.632759   46.842220
H   22.639954    7.941113   98.117783
H   19.997765   60.607689   86.128342
H   90.607300   53.484520   68.797997
H   17.618847   89.206940   95.693161
H   69.328804   35.439796   73.250999
H   15.150213   22.659853   70.815933
H   31.919777   40.441284   68.937225
H   64.010033   95.372902   25.450668
H   73.920959   56.232780   97.207947
H   53.792290   49.181908   36.373127
H   96.772705   80.203873   13.961000
H   66.872818   12.008976    6.644238
H   82.896996   13.386130   75.487099
H   65.781761   31.701471   64.306747
H   76.463478   45.303795   51.328457
H   62.071190   40.285980   29.055658
H   32.944256   10.202383   33.121311
H   64.562973   47.206440   41.654350
H   94.134254   91.914810   35.782845
H   52.936375   51.514050    8.429731
H    2.564344   58.262161    7.079138
H   53.770176   43.126190   34.581425
H   98.001167   96.054298   67.142456
H   47.691330   14.462282   39.430923
H    1.828904   87.991112   91.016228
H   10.681585   47.103119   26.016035
H   90.549820   33.240280   73.399635
H    0.279282   74.519417   10.618111
H   76.338486   20.859047    1.040554
H   11.968597   89.471436   78.844681
H   37.292568   57.129482   74.469124
H   23.167721   92.024460   85.167465
H   54.937527   43.585728   71.713646
H   19.436516   57.236145   65.468407
H   71.420166   10.870012   56.450333
H   92.025131   91.007347   13.598537
H   14.755532   34.535126   21.651089
H    6.340010   46.113789   65.037888
H   72.701492   23.504074   90.706085
