100
TIME:    1.006, STEP:  1006
H   49.290443   29.765907   98.224991
H   73.286507   59.290287   41.458370
H   97.048920   46.279400   11.527779
H   81.645462   91.202110   85.021233
H   86.160400   53.392860   38.427788
H   12.416550    0.118762   78.373528
H    0.246842   29.267477   69.123283
H   40.816681   75.633224   15.825932
H   28.898598   89.570511   36.762848
H   47.348152   30.828339   47.085106
H    6.679352    6.721162   42.846336
H   17.443264   74.116341   21.320696
H   79.270142    0.842819   25.140955
H    5.270666    1.975540   33.797291
H   92.737373   80.164581    2.413960
H   61.075226   23.744541   49.533676
H   43.185631   48.525375   64.949135
H   22.641937   45.778961   64.670212
H   60.929321   20.555651   16.363253
H   65.417885   84.440125   84.819389
H    4.579126   56.067657   29.940018
H   58.809681   45.427742   33.596401
H   72.312477   86.440483    3.566420
H   25.573257   48.747135   32.360321
H   93.604240    6.391132   43.984985
H   42.046207   97.634598   94.880905
H   75.330902    0.657876   19.929144
H   47.657234    3.395952    0.025345
H   33.045639   40.363895    9.618599
H   39.567211   65.941391   63.362667
H   55.674931   12.256575   29.805336
H   29.276495   24.718117    6.133603
H   41.219166   94.878960   88.425377
H   20.607964   81.528877   29.369432
H   55.766121   82.874184   85.987091
H   60.022797   63.511181   17.182829
H   76.287010   67.694191   87.734261
H   22.411652   40.541515   93.432594
H    5.493469   59.032860   45.706993
H   68.438637   18.004641   17.183691
H   66.491196   90.700325   66.045456
H   41.207634   57.009254   50.063648
H   19.906103   69.532623   74.136879
H   15.119555   29.630430   79.094978
H   69.391563   92.199783   42.194786
H   65.103203   82.115776   87.263329
H   46.702503   80.009232   36.219429
H   56.293140    5.741144   30.823484
H   94.438103   49.131668    4.343335
H   46.988827   46.061359   13.304497
H   43.467869   72.520653   64.023972
H   54.022331   70.390472    8.018959
H   29.747606   27.841858   44.443268
H   53.393932   90.790352   76.208817
H   60.673309   46.696507    8.942701
H   94.824966   11.474688   58.380188
H   60.026360   60.519295   51.666451
H   51.149597   81.883232   87.642654
H   69.617104   81.274200   34.251972
H   92.633575    5.111495   34.996544
H   23.160059   31.787743   35.959869
H   63.206238   18.581650   49.837639
H   42.469460   38.552284   64.542580
H   12.119055   47.266876   99.825172
H   72.253502   80.496941   89.248055
H   39.545052   92.261909    5.668254
H    6.855028   83.142181   15.631958
H   10.874560   75.071152   14.295218
H    7.039998   77.501587   97.137032
H   50.764565   98.741356   99.614777
H   90.086586   26.953123   50.082035
H   91.017960   18.138527   30.275831
H   41.399124   68.544014   35.953495
H    8.048785   85.718170   43.419029
H   10.675809   30.075117   77.659355
H   49.442989   72.048851   28.238964
H   58.294041   39.353142    8.834892
H   79.244034   84.941200   69.998947
H    9.771715   50.555515   28.905716
H   50.189438   54.166382   34.253296
H   30.568554   39.689190   40.114437
H   16.803734   50.797501    2.656017
H   81.449028   24.047777   25.716282
H   19.373114   98.246315   71.543068
H    3.345074   85.958099   50.232002
H   28.138088   46.007381   11.643045
H   34.343193   30.208534   71.513031
H   72.149780   24.751331   85.284218
H   76.559761   38.159203   19.969482
H   77.393326   67.888870   60.176922
H   65.192207   27.753283   54.706615
H   52.720768   71.166954   52.690102
H   49.830528   57.772324   96.741447
H   44.461906   74.254997   94.648308
H   39.199711   59.619194   39.202568
H   77.013046   56.004997   15.487965
H   82.750992   25.412519   79.332977
H   10.558841   24.803162   39.940231
H   60.788506   41.186764   60.782406
H    1.717435   52.864391    0.793426
