100
TIME:    5.451, STEP:  5451
H   48.693275   22.137169   94.155472
H   49.931435    0.244213   21.808109
H   73.456558   66.070755   59.360470
H   82.391541    8.068577   41.375275
H   46.346939    9.679110   17.906250
H   43.492481   95.302620   18.576845
H   67.281761   29.415180   16.728380
H   91.448441   60.181690    7.700532
H   19.631950   62.201965   56.966957
H   25.878336   94.651649   21.144430
H   93.216293   85.575500   14.681934
H   47.792694   96.921303    4.921324
H   96.227371   31.958302   83.382988
H   85.180199   88.274361   72.064339
H   46.803703   83.122360   88.747681
H   82.350571   34.964737   80.560272
H   85.770058   42.511532   69.614380
H   17.633635   29.591427   10.566275
H   30.169613    7.027933   50.540813
H   45.656403   90.055946   87.462074
H   40.806648   13.552620    9.295193
H   84.973022   51.320267   55.075272
H   12.964890   50.289589   76.390503
H   12.581139    2.038058    2.233916
H   34.624298   53.869019   76.796730
H   21.697588   65.515457   77.829880
H   92.032974   15.884871    8.121719
H   72.601570   10.873940   46.954941
H   29.698036   43.649113   99.501282
H   10.009251   55.927513   16.727463
H   30.585846   10.857619   78.113167
H    9.936680    1.908851   94.637703
H   54.319134   69.661278   88.866081
H    8.418830   74.171135   42.108559
H   45.274750   46.866348   56.654839
H   46.483479   12.374214    2.288852
H    2.621240    4.907318   37.982708
H   38.692043   59.200443    7.104245
H   14.982854   62.648857   16.069918
H   49.769749    1.878420   66.908836
H   62.714386   43.219154   70.768898
H   41.715660   56.502892   58.888073
H   58.193493   96.187973   95.205818
H   31.278904    4.137680   13.706216
H   83.821556   16.824280   22.567430
H    7.760907   66.886307    5.306460
H   84.320602   21.282040   77.790352
H   56.530529   51.513504    5.854898
H   24.368813   80.997803   27.030880
H   40.201618   13.699057    2.415081
H   43.128742   43.384888   10.889300
H   70.040947   57.928104   16.213348
H   21.941677   53.615479   86.283684
H   50.457153   18.263702   72.354149
H    6.777889   36.304440   46.711742
H    0.384920    6.799800    7.061905
H   41.821068   32.260628   74.422874
H   20.162853   62.108025   73.149887
H   20.185896   69.087227   93.006783
H   99.309998   46.770718    8.571175
H    3.553484   25.075668   89.393272
H    5.450777   77.204941   48.714844
H   44.129063   35.317062   59.679016
H   17.349560   71.457047   79.145950
H   48.682983   25.481434    3.196579
H   66.482445   71.287743   68.488991
H   50.224792   36.817829   30.237240
H    3.827826   29.286352   26.791922
H   28.579062   58.112236   18.354767
H   40.822166   22.311237   90.254883
H   48.939217   24.514603   96.758461
H   24.507549   70.616837   55.719398
H   51.576187   48.676445   21.983826
H   10.212894    4.425725   79.273857
H   24.986326   36.411625   14.620724
H   54.525650   56.931831   29.146692
H   61.871365   54.090382   87.451958
H   88.078217   94.292641   15.477254
H   22.908733   37.507420   78.500710
H   32.200089   12.076737   51.312683
H   17.539293   85.674759    5.782861
H   50.323624   79.821396   30.965025
H   62.664185   98.279358   49.069912
H   25.170374   78.612839   65.551392
H   86.910316    7.920825   19.338951
H   25.835857    9.277629   20.317368
H   31.214697    7.020778   83.468185
H   43.696068   68.880005   39.059334
H   68.806992   90.669655   83.608650
H   84.397156   85.006638   19.078020
H   47.100060   67.768478   48.576946
H   81.617699    5.446913   37.390121
H   34.872971   91.076820   40.538776
H   74.085487   43.878979   94.351768
H   62.346977   61.463245   41.343510
H   44.151855   80.477875   85.897552
H   29.927279   80.502495   23.697327
H   26.873655   62.649689   68.804771
H   49.039948   60.347416   88.458397
H   77.793045   38.752666   72.629181
