100
TIME:    8.886, STEP:  8886
H   16.398335    7.133085   91.010635
H   55.066422   86.383255   38.395695
H   32.513081   13.198466   19.032158
H   82.968094   66.547234   53.091690
H   15.572962   85.009338   24.769146
H   90.220459   91.581230   58.757042
H   87.254723   61.364563   85.349937
H   21.464218   57.352924   92.310402
H   35.193031   31.940090   40.745274
H   32.051918   43.974796   55.643562
H   73.700958   23.789108   83.804710
H   16.686447   69.099892   60.413765
H   77.118881   24.130104   42.041039
H   15.100106   77.686745   33.468777
H   88.535347   76.291512   23.573341
H   44.236938   34.527000   95.424866
H    9.547767   69.709526   82.315987
H   91.085098   62.446190   91.494217
H   83.668121   51.133312   31.510593
H   53.109394   17.109915   21.332758
H   36.968880   71.588531   16.063353
H   14.289819   55.880280   62.553299
H   67.101295   22.357485   78.111160
H   93.420227   43.130585   47.122883
H   11.770556   81.456253    2.164035
H    5.708225   64.144211   54.670506
H   95.829002   73.097855   76.280563
H   82.766602   71.208145   60.498665
H    4.388175   55.299313   37.125328
H   41.721153   70.910873   89.800446
H   65.777779   18.880833    6.347038
H   26.824635    7.002827   76.642555
H   96.274185   18.340290   98.318008
H   53.556992   59.373810   97.399178
H   59.807747   86.875130   65.685516
H   45.082020   81.421783   91.490425
H   32.082344   79.110115    8.647355
H   96.718163   96.333015   49.500748
H   69.992729   87.807335   83.193192
H   26.231905   80.306068   37.166481
H   27.955931   61.080086   51.694790
H   51.350250   76.449615   33.607258
H   87.760101   16.792484   43.317547
H   11.943882   61.799698   49.559666
H   85.860992   81.303917   16.510454
H   63.421814   32.397655   19.261671
H   11.163972    8.088800   10.765102
H   56.729977   86.892914   18.392460
H   24.777359   96.512428   90.007629
H   12.301085   65.985039   62.224834
H   42.891438   11.757416   47.100616
H   36.989117   39.184086   90.725288
H   93.187691   73.532776   86.787796
H   70.909424   62.225685   23.930454
H   33.278816   37.331360   75.921814
H    4.663261    3.186514   90.126373
H   59.584381   33.144875    1.119898
H   64.385925   37.714485   84.671532
H   91.097862   14.233720   29.307020
H   72.633583   10.794980   10.871605
H   20.236265   65.329224   21.573956
H   83.536400   45.232437   93.291100
H   77.331879    0.917901   24.130768
H   53.226345   90.168823   85.884415
H   85.024002   51.134480   23.083349
H   55.467842    0.524323   71.594032
H   74.627945   55.572414   96.077499
H   66.548935   25.737629   91.004791
H   99.777710   11.295036    2.917337
H   10.495040   94.965958   82.996552
H   39.856922   90.795937   55.561104
H   41.526619   56.550194    7.386633
H   27.607956   78.772148   33.912853
H   34.593227   87.024818   75.177834
H   90.519196   41.399387   75.044174
H   35.728386   77.082878   98.014847
H   73.821121   56.695400   48.338257
H   49.454838   69.692406    5.189129
H   87.629555   27.417736   16.824106
H   63.747520   24.957079   55.384361
H   84.773598   21.212107   11.087359
H    8.094931    2.099615   43.601021
H   79.933800   55.723545   76.201195
H   61.490532   72.553444   51.817844
H   19.656723   93.048325   86.355682
H   46.781689   35.451035   58.854034
H   60.630695   57.267570   47.262001
H   98.940361   94.007851    3.443898
H   40.095463   99.414543   55.514778
H   80.697372   43.683014   41.869499
H   87.674400   53.247540   21.118187
H   35.772915   63.791504    2.843415
H   55.063206   94.138847    6.172603
H    6.063166   52.276234   25.967180
H    2.955853   53.776638   20.276857
H   27.868790   44.833069    8.475498
H   57.273338   77.628136   26.146667
H   21.125277   26.140064    0.493151
H   85.404594   75.174095    0.740905
H   91.155411   50.603458   41.723804
