100
TIME:    7.881, STEP:  7881
H   84.362541   99.296074   91.930740
H   82.822922   31.923862   75.028336
H   15.238108   40.894226   30.828671
H   82.799408    7.952698    8.177576
H   24.578489    4.454195   52.018570
H    5.803077   92.670021   59.228676
H   39.926815   93.499924    6.757633
H    0.455234   70.407768   84.586586
H   59.897850   28.567337    4.005585
H   59.501717   29.544481   16.292210
H   67.183609   83.351837   80.611343
H   55.047157   18.724148   31.950314
H   41.204582   84.959351   41.914700
H   64.861183   80.784431   56.988682
H   76.328621   66.063065   71.903107
H   84.644882   22.428040   78.848907
H   90.363808    3.238649   90.826874
H   69.597656   11.349472   26.331924
H   68.011002    8.969502   78.563004
H   80.188065   38.451359   52.907722
H   96.607018   71.639465   43.339039
H   17.939486   54.546127   48.138321
H   80.519493   30.527250    6.864903
H   86.799515   31.107882   21.761902
H   47.714058   61.158569   94.742897
H   10.447796   93.771591   49.245682
H   82.491821   14.872523   56.342014
H   67.564903   24.298132   27.275751
H   82.535408   64.117935   84.633415
H    3.186328   95.784378    9.905724
H   26.221838   28.760483   85.859444
H   63.368435   34.767582   69.680428
H   25.483625   91.871300    7.779675
H   11.092481   51.476051   39.736588
H   84.819267   62.967735    4.537389
H   57.719456    2.702248   94.649452
H   35.689625   15.915926   29.457182
H   38.256088   14.724487   78.581230
H   12.411399    9.704153   80.585060
H   20.891678   74.391037   58.096169
H   96.641541   26.599150   28.017424
H   36.046272   72.508499   82.298820
H   79.111115   10.763628   70.725410
H   76.114502   44.924644   51.297283
H   73.036705   20.949200   30.508873
H   76.394951   13.232554   15.178705
H    3.306990   53.433968    1.113665
H   56.668636   76.541733   56.209164
H   95.401558   79.745430   30.097137
H   91.203369   50.687298   32.492508
H   42.960445    8.783628   36.504074
H   88.144836   32.440182   56.698303
H   72.347313   67.705444   45.155220
H   94.188080   78.619720   79.583450
H   13.297825   49.258499   67.380173
H    3.411535    4.243676   24.338959
H   95.873825   62.143517    5.536098
H   39.219894   32.624535   10.558003
H   11.831799   71.769417    6.461460
H   38.953773   33.548153   39.456200
H   56.840282   12.069075   99.932076
H   19.205849   54.586838   38.764099
H    9.101211   69.497711   93.046631
H   84.214226   84.694199   13.168576
H   45.133827   31.401606   29.492544
H   17.205845   50.485435   12.170459
H   55.261261   20.829552   47.557293
H   35.971291   68.260124   42.959976
H   49.691139   83.507942   65.951569
H   90.083763   44.485828   85.128128
H   71.775032   59.179092   67.614479
H   24.286503   89.919334   33.720547
H   93.134766   28.486143   59.683460
H   56.714085   50.630459   34.890717
H   42.106339   39.919552   98.844528
H   11.967002   12.670570   65.636757
H   82.545616   43.680405   30.511541
H    2.243809   35.403240   49.678738
H   39.435295   30.369740    5.608269
H   13.033847   79.703819   41.965950
H   65.098686   10.814919   51.019516
H   32.680687   95.580048   27.680080
H   16.365080   38.916294   80.489899
H   92.349693   86.553223   43.609241
H   68.590973   55.915806   83.778511
H   69.912704   98.535446   89.063660
H   93.508949   30.339577   99.339745
H   82.777184   74.429321   13.864250
H   19.237404   55.370583   63.734383
H   69.553314   85.030167    5.944769
H   46.545704   98.983665   99.894089
H   61.413090   88.206177   83.690956
H   90.640884   63.990070   28.454409
H    8.934484   91.304039   58.202496
H   20.334057   43.798096   97.184265
H   44.859894   84.520264   60.385033
H   37.045280   19.953690   83.944984
H   23.065165   76.410530   20.670286
H   33.280235   70.834267   84.920921
H   28.730616   76.393082   38.538708
