100
TIME:    5.064, STEP:  5064
H   74.864906   57.626717   94.509781
H   60.619759   79.274994   97.406616
H   66.801453   38.227966   63.904484
H   82.326584   24.013962   62.589531
H   49.813263   78.659439   28.398228
H   49.495068   95.721886   80.251396
H   87.565956    3.282225   86.464401
H   21.865883   26.702435   43.234608
H   29.145149   99.410324   81.326561
H   36.453606   89.094902    5.988908
H   29.214081   70.003616   51.958889
H   62.564430   77.522881   32.467445
H   20.922684   55.360420   21.837402
H    4.342221   89.467201   42.613205
H   42.097298   17.690615    7.349669
H   97.910645   68.813065   12.684673
H   16.890511   16.915653   34.384247
H    9.358157   48.420193   23.981302
H   24.141930   90.793549   30.153276
H   56.081947   98.275917   61.113289
H   63.771782   52.080780   19.798981
H   47.870956   50.806519   88.031921
H   18.132332   53.437035   87.462662
H   48.539761   97.408417   30.976044
H   48.465973   84.559067   73.938637
H   23.461752   76.953735   14.222685
H   25.404123   31.971985    0.442446
H    5.256698   92.810120   34.161430
H   21.283195    8.537912   17.794155
H   95.170151   65.505669   85.962349
H   15.354953   76.153732    8.731377
H   85.501350   12.600656   30.464180
H   27.058270   97.976479   54.002068
H   92.067078    9.637340   58.412682
H   54.894241   76.120468   33.090332
H   12.842671   82.062675    3.506001
H   65.501587   19.081158    7.488713
H   54.686146   66.282722   79.793587
H   31.319408   71.081413   53.572906
H   86.221092   38.108536   36.459202
H   89.163559   29.941420   61.651348
H   76.497002   39.132889   40.709064
H   54.860035   93.867249   67.250832
H   55.989010   97.641846   75.866745
H   17.391573   32.092049   89.450340
H   12.754704   59.504871    3.733539
H   81.297165    0.234716   74.076012
H   56.509861   47.527527   81.909569
H   13.057495   13.049831   42.469421
H   32.084988    7.808668   29.481407
H   43.158268   80.746780    6.809578
H   51.233040   93.837830   41.620262
H   13.913815   51.371521    8.759291
H   59.418221   24.579262   55.276451
H   37.592163    2.389194   43.419621
H   99.902420    7.206886   20.236298
H   17.288116   43.427269   37.616066
H   48.979385   98.655006   83.117783
H   89.663933   52.735687   22.716610
H   24.847363   17.023518   19.578377
H   79.141479   43.072186   19.567070
H   19.184752   80.807083   66.226196
H   17.854887   61.724899   86.216766
H   90.775307   69.348907   89.651215
H   33.320732   56.391636   67.157310
H   90.256584   90.526726   45.606529
H   81.274078   23.438763   11.551865
H   30.560783    7.152383    8.291083
H    9.290142   85.919594   42.627892
H   32.983078    2.845979   91.069794
H   61.227837   50.845673    1.400267
H   56.416382   83.460541   27.383770
H   76.808899   67.818581   31.907433
H   18.731075   28.918762    2.268402
H    6.327874   35.859493   85.283295
H   45.375618   32.127243   55.185619
H   26.732985   87.632515   80.607887
H   69.896255   19.597446   94.104805
H    4.351405   38.644161   74.184044
H   51.177094   33.156864   84.653168
H    9.966524   81.671066   82.652596
H   21.283218   77.299332   63.329002
H   38.184380   91.807312   12.212987
H   98.545441   45.496750    0.899564
H    5.753960   32.128746   56.854378
H   34.743778   95.062965   93.442612
H    5.367849   35.158875   65.014587
H   37.467972   99.858978   43.080055
H   60.775986   12.217100   86.773811
H   18.612734    0.927101    5.244227
H   31.262444   46.872570   40.404217
H   52.983616   76.340622   30.017538
H   10.065608   79.467293   10.611469
H   36.682800   20.401297   68.256905
H   69.037514   96.126701   32.450352
H   12.187270   95.760406    5.886703
H   60.645775   58.293224   45.953842
H   25.453466   59.354614   74.999275
H   67.475830   58.679211   20.873657
H   53.754429   48.682178    9.908992
