100
TIME:    5.774, STEP:  5774
H   26.850061   92.517021   93.859756
H   41.010689   17.747679   42.174885
H   79.011078   89.309052   55.567921
H   82.445755   94.760651   23.669899
H   43.453857   35.568985    9.148897
H   38.482571   94.952690   50.565334
H   50.354046   51.226650   41.987400
H   66.061279   88.126450   78.044731
H   11.691994   31.146927   36.634064
H   17.053064   99.289452   33.793186
H   63.171616   98.572189   83.568352
H   35.463829   13.111229   81.929680
H   75.616013   12.425072   51.288017
H   69.186928   87.278786   96.643211
H   50.731789   54.270401   73.222626
H   69.363739    6.713862   53.748749
H   59.796394   63.874500   99.018341
H   24.541052   13.875389   99.369667
H   35.199688   20.579065   67.557281
H   36.954979   83.195351    9.453333
H   21.639366   81.397522    0.528476
H   15.939346   51.749054   27.568817
H    8.651759   47.662651   67.149399
H   82.570427    5.902071   78.246323
H   23.072639   28.252678   79.182167
H   20.225172   55.966705   47.456329
H   64.181519    2.457656   14.530733
H   45.348164   25.950493   57.632729
H   36.721275   72.954498   84.232513
H   22.393860   47.933342   42.404678
H   43.299004   39.821262   52.558434
H   30.330997   92.983643   64.735954
H   77.070549   46.028694   17.964476
H   22.066982   44.570030   28.501043
H   37.246078   22.449636   76.323914
H   74.561646   37.673531    1.273046
H   33.600998   93.078247   63.433941
H   25.342960   53.288601   29.896732
H    1.348408   55.610832   84.769020
H   19.347521   71.641411   92.320641
H   40.639236   54.301086   78.378639
H   13.612842   64.245880   74.731316
H   60.975681   98.124908   18.536461
H   10.655064    9.559347   45.286819
H   55.803249    4.080836   50.207378
H    3.592846   73.047043    6.618697
H   86.844040   38.848282   80.890434
H   56.547779   54.840302   25.840292
H   33.809525   54.246323   14.146228
H   46.975964   18.615324   79.822678
H   43.105122   12.200922   14.294339
H   85.738503   27.955059   95.008766
H   28.642094   55.488342   67.525475
H   42.978020   12.992929   86.607628
H   81.060265   64.611740   49.459431
H    0.787249    6.460035   96.066208
H   62.296890   22.940666    5.142857
H   96.111969   31.604971   64.830429
H   45.659309   82.734489   68.211052
H   77.993851   71.597733   99.384300
H   23.929127   10.054806   64.208183
H   93.987373   74.198502   34.099113
H   66.058586   13.275442   37.529938
H   39.529861   73.216553   70.377991
H   61.504707   99.683884   33.276936
H   46.639946   55.230400   87.587273
H   24.309906   47.983547   45.831436
H   81.515999   47.758884   42.233189
H   44.678295   34.903511   98.096497
H   47.364868   38.557594   89.574738
H   38.682823    2.537647   92.884590
H   97.874893   59.897156   79.367630
H   30.516239   32.700424   13.701332
H    3.103385   83.982262   60.081932
H   40.558758   36.872448   39.106827
H   62.162498   77.632744    7.413083
H   91.196648   26.093794   93.164192
H    3.253352   73.173637   33.316261
H   38.396824   36.558666   82.103508
H   16.362671   94.482094   23.485790
H   23.860209   89.016342   25.087236
H   74.565964   81.916046    3.945498
H   83.093346    3.680769   79.830429
H   47.391296    6.252510   36.051197
H   71.183189   87.717781   88.027924
H   18.401081   21.141975   42.747375
H   52.787132   83.535942   98.870026
H   48.890800   43.032482   35.710358
H   75.509872   72.685234   80.966927
H   55.840206   71.719162   30.624472
H   60.318535   85.210754   55.398113
H    5.516428   29.738932   43.543465
H   55.577972    0.766610   65.516861
H    5.302908   63.475048   16.130861
H   56.762886   32.529964   48.765965
H   70.830307   67.722687   69.214279
H    4.289709   99.038918    5.121114
H   27.132174   72.154739   62.966118
H   33.652893   61.739742   61.405136
H   97.857330   30.465015   41.513218
