100
TIME:    2.209, STEP:  2209
H   67.936676   19.444656   97.123611
H   39.822929   24.512827   17.342947
H   17.725538   32.827789   97.405144
H   81.847382   41.640038   19.079967
H   75.385239   49.818607    5.810257
H   93.763069   98.814919   97.510063
H   37.196796   10.499125   63.199532
H   46.263252   79.708221    5.370293
H   99.326500   73.907013   61.039654
H   14.474424   48.101326   94.190727
H   94.779236   55.126377   26.967745
H   71.530655   34.416260   35.689507
H    2.748541   28.059975    5.572732
H   45.704597   98.267097   25.345821
H    7.369239   72.710510   44.588181
H   12.705322   18.522041   49.675552
H   46.467148   28.081703   74.477249
H   48.349968   87.276848   22.963650
H   79.669624   71.025085   79.740738
H   33.004097   58.901356   66.731636
H   33.191437   36.304638   97.288345
H   74.159332   47.016464   31.161499
H   56.250694   76.656563   69.148071
H   13.801521   63.175205   43.014946
H   50.577019   10.980667   52.860268
H   36.530132   61.785267   82.122185
H   71.595055   50.652714   43.801540
H   46.152603   59.548367   39.789600
H   59.203400   49.509560   52.751335
H   85.696648   36.167435   58.997646
H    2.997889   20.138361   34.613644
H    5.234848   91.480812   94.765892
H   25.956257    6.861687   96.801117
H   71.436623   71.281113   78.689697
H   25.862728   91.936554   59.239769
H   64.618515   58.013691   13.046109
H   91.670959   23.638144   82.525940
H   72.687782   18.523106   78.323997
H   51.831688   33.284973   30.243349
H   55.129681    5.383624   11.833296
H   84.280373   31.979929   94.387619
H   33.088867   10.997962    6.582401
H   30.268248   76.746658   61.030640
H   38.299126   49.794312   96.718552
H   65.040108   44.734058   45.141457
H   49.588413    5.050068   92.139778
H   58.987591   44.971039   46.660583
H   56.357388   18.127073    5.258320
H   29.601309   49.499348   56.357864
H   72.216606   64.371605   29.164288
H   43.376087   56.378944   76.708191
H   12.486246   58.761211   29.045147
H   54.703026   34.817261   74.575340
H   25.538212   71.167442   29.292807
H   64.902908   52.158314   19.150404
H   96.330185   10.210396   17.427231
H   36.292515   25.807487   66.081718
H   61.570160   68.274780   56.657181
H   64.494774   32.105068   41.897293
H   13.248268   97.578140    0.781334
H   99.045639   75.842232   42.164333
H   20.510666    7.382526   95.403244
H   24.067513   56.516197   82.012131
H   94.727173   53.810905   67.169273
H   20.000362   84.415070    1.280675
H   65.642891   32.457008   76.798668
H   10.336142   24.734209   73.712662
H   27.775185   43.872681   71.805573
H   67.000145   91.061684   21.687393
H   75.136780   59.250816   97.081604
H   51.887077   45.099571   35.653065
H   91.825195   78.212601   18.353930
H   62.960770    9.041294    5.105694
H   81.576805    9.589095   71.921120
H   68.674828   31.786844   68.855087
H   77.881630   49.149467   47.291439
H   67.518738   35.085327   30.116983
H   35.763165    6.279094   36.435062
H   67.440475   47.030201   42.324059
H   91.191750   88.647293   30.613777
H   54.110538   52.134777   12.015738
H    7.066336   58.654007    2.061830
H   57.566410   44.127777   40.296146
H    2.128565    1.188573   61.662109
H   44.769882   10.709192   33.614578
H    0.447888   90.194786   95.182793
H   14.688848   42.740631   28.877058
H   91.515701   28.436508   72.775246
H    1.524574   71.178658   10.127274
H   71.033920   18.390327    3.185320
H   14.424042   92.711487   80.111771
H   41.732418   61.641659   75.612617
H   27.017284   93.822556   89.809189
H   60.736935   47.225407   75.759361
H   18.398994   51.861542   66.847191
H   76.375916    8.500742   53.351273
H   87.262558   94.450645   10.147800
H   14.975831   35.045990   20.690929
H    3.481848   46.372425   60.012009
H   76.427689   21.963013   84.927277
