100
TIME:    5.904, STEP:  5904
H   18.059053   80.595329   93.740738
H   37.420296   24.792585   50.372288
H   81.246643   98.661926   54.041508
H   82.467575   89.404816   16.544159
H   42.289459   45.989059    5.624212
H   36.466198   94.811852   63.440166
H   43.541225   60.005260   52.153568
H   55.843536   99.373703   66.109154
H    8.496346   18.647995   28.450762
H   13.501848    1.156154   38.883213
H   51.079330    3.802931   71.045616
H   30.501747   19.627384   72.675987
H   67.320419    4.563400   38.370537
H   62.750008   86.878090    6.536267
H   52.312752   42.658157   66.974152
H   64.136841   95.343483   42.957733
H   49.342598   72.473579   10.852758
H   27.321127    7.550049   94.862831
H   37.223995   26.033091   74.406799
H   33.452858   80.434120   18.304346
H   13.924980   68.456238   96.999657
H   28.402573   51.921631   16.498108
H    6.915902   46.605370   63.430069
H   70.492027    7.457247   68.591934
H   18.423477   17.942696   80.142250
H   19.632559   52.123398   35.232132
H   52.970978   97.053909   17.110319
H   34.379612   32.018456   61.930290
H   39.547966   84.749237   78.087189
H   27.378258   44.715874   52.739456
H   48.415810   51.478138   42.273247
H   38.539310   89.391266   52.701195
H   86.227043   36.517128   29.675901
H   27.560184   32.656273   23.024702
H   34.014725   12.622261   84.240631
H   85.862457   47.855568    0.864204
H   46.069183   88.317505   73.677467
H   19.970177   50.909222   39.070087
H   95.861450   52.778191   72.170906
H    7.102991   59.471394    2.548429
H   31.754517   58.761307   81.441383
H    2.656943   64.755676   81.368584
H   62.095448   98.904480   27.926529
H    2.354335   11.741354   57.997009
H   44.527233   98.951767   61.331646
H    1.915244   75.526596    7.146842
H   87.859665   45.917984   82.138145
H   56.554722   56.179260   33.883961
H   37.609192   43.480103    8.960242
H   49.702480   20.594007   70.729660
H   43.096195   99.649994   15.664788
H   92.056404   15.892033   86.475136
H   31.338856   56.242126   59.975201
H   39.967842   10.871671   92.344322
H   70.709618   76.003799   50.565311
H    0.949179    6.323288   91.640701
H   70.538719   19.189598   17.507118
H   86.431793   19.327711   61.482040
H   55.911766   88.227196   58.231346
H   69.414597   81.589340   95.686790
H   32.129993    4.009407   54.072742
H   89.373421   72.988480   28.216621
H   74.883812    4.404345   28.615448
H   48.457245   73.924713   66.849091
H   66.664642   89.301498   45.383106
H   38.653801   48.767693   95.273888
H   13.879417   52.477489   52.107681
H   72.536049   55.193577   48.447941
H   51.157864   25.562538   89.943726
H   49.998154   45.096672   89.300995
H   34.554863   93.692520   91.325447
H   87.155289   55.582733   88.885147
H   22.039639   26.270447   10.367821
H    0.241920   75.754112   52.357628
H   46.826077   37.057919   48.961563
H   65.235756   85.964043   98.665771
H    2.999467   14.826208   95.463234
H    9.360988   64.673729   40.496056
H   44.630421   36.176815   83.553551
H    9.987505   87.400490   12.286227
H   26.404230   90.361252   32.856724
H   84.323502   82.759094   93.071037
H   91.315544    5.854709   92.210342
H   56.334549   17.377056   24.178104
H   64.853386   79.586830   75.425842
H   15.408756   25.917099   51.774933
H   61.469536   74.083885    5.068978
H   50.981560   32.629269   34.362473
H   78.207626   65.446922   79.903694
H   44.345989   66.371262   35.271301
H   65.638664   92.230865   58.143475
H   15.135111   39.516190   46.020042
H   63.911255    4.667402   75.569962
H   17.866619   71.362007   24.896578
H   54.515419   20.884991   51.753330
H   81.567764   62.589020   62.499649
H   93.970909    6.499182   97.644592
H   26.881243   78.587692   60.356636
H   27.459961   62.300121   50.515930
H    5.932165   27.129025   28.989491
