100
TIME:    0.078, STEP:    78
H   12.047807   14.868218   99.074600
H   99.100471    8.973793   82.920746
H   81.104584   79.515556   22.424019
H   81.489700   29.437254   35.887733
H   94.472412   79.009567   63.590385
H   26.806808    1.128758   86.470116
H   48.881771   66.605827   96.552185
H   13.755651   95.350494    1.031664
H   51.710609   78.793961   95.176796
H   72.708992   17.507172   10.743067
H   92.999664   69.381027   32.236427
H   52.864895   27.600227   87.377251
H   38.300789   56.988297   17.376579
H   51.219959    4.836775   63.177139
H   81.451729   63.053841   47.023708
H   98.386078    4.915547   26.565426
H   17.794954   87.155373   80.456505
H    2.811611   90.907379   96.842087
H   46.478882   81.625824   67.470490
H   90.538002    3.896891   21.509333
H   59.647919   48.452782   55.124146
H   69.826942   44.202888   12.613741
H   84.702614   93.987846   30.119423
H   11.794529   37.617252    1.281160
H   26.792986   79.987007   37.134232
H   46.296528   25.290115   81.859550
H   55.353443   39.234913    1.514172
H   25.959160   60.079952   69.354446
H   12.867141   56.168636   53.484955
H    3.984927   88.909164   89.589714
H   19.170046   29.036905    3.239764
H   70.682343   50.355080   92.043251
H   75.852722   62.775337    4.823811
H   81.397774   66.574463   68.465385
H   78.833015   53.024002   29.478233
H   79.336845   90.613152   20.375944
H   87.281319    1.677538   14.610584
H   60.764435   57.526623   27.945765
H   47.214512   78.842918   34.650894
H   55.846035    4.880674   44.171165
H   29.911198   58.855274   44.175755
H   24.610977   15.357183    6.464915
H   11.913600   63.967678    7.107618
H   74.378799   14.079038   88.357925
H   49.889046   28.814426   62.782181
H   76.955254   64.670464   83.624168
H   36.903675   29.948261   28.289740
H   56.243580   96.185013   73.404144
H   67.307243   25.989300   41.362976
H   27.525694   31.936604   78.209122
H   43.533642   62.114525   54.248013
H    8.924043   56.501793   68.942459
H   10.497379   22.460999   98.339394
H   74.878387    5.929652   35.257648
H   34.550117   65.343658    1.068049
H   93.663834   12.450397   89.971497
H    1.197549   87.296150   63.405891
H   20.251886   69.520378   11.545862
H   96.429420   42.064728    5.494952
H   53.875397   33.783241   61.382378
H   64.621048   74.942612    8.314902
H   96.142761   27.219345   91.824890
H   79.524147    1.834105   28.207001
H   48.395859   42.218781   25.023123
H   35.417442   54.615177    2.824803
H   96.553841   38.395557   50.797832
H   81.310326   51.058125   70.828110
H   74.977730   21.998219   69.931450
H   60.791527   44.181740   55.341549
H   31.966949   52.067673    1.566743
H   19.555998   90.097130   61.211918
H   67.534630   48.936867   62.333576
H    1.905560   14.449009   59.749638
H   28.474121   44.444134   98.572838
H   65.930832   28.754683    7.310661
H   27.501829   12.571234   90.681412
H   74.037476   19.783638   92.412048
H   35.644913   45.619923   18.747608
H   65.293266   53.271420   18.558182
H   95.700180    4.705722   14.201298
H   12.408504   30.087900   84.650665
H   47.176579   44.736954   80.258240
H   22.731281    8.559257   37.328888
H   55.536385   18.836155   56.305763
H   48.533035   44.006516   40.190971
H   49.503513   11.914058   47.201473
H   72.364159   97.681679   27.262539
H   57.210815   99.049324   94.927284
H   57.301949   89.829613   27.562866
H   59.438637    6.077775   27.000208
H   27.214663   77.642578   35.108959
H   84.057838    1.373096   35.011147
H   90.288948   29.968599   24.949106
H   54.767494   17.963469   32.078190
H   55.243168   42.743252   17.879719
H    0.364033   92.651482   63.420113
H   56.410973   72.156670   32.703041
H    7.151773   16.901794   54.787155
H    4.996311   37.186520   38.517948
H   44.085583   76.699242   90.173325
