100
TIME:    7.743, STEP:  7743
H   93.695061   11.951076   92.057083
H   86.634262   24.445423   66.327530
H   12.866022   30.965843   32.448635
H   82.776245   13.638649   15.742086
H   25.815069   93.392937   55.760422
H    7.943271   92.819527   45.561546
H   47.158886   84.182144   95.965836
H   11.301765   58.468861   97.256660
H   63.290154   41.835571   12.692238
H   63.270943   27.563005   10.888424
H   80.020035   77.799072   93.904709
H   60.314598   11.807041   41.773460
H   50.004356   93.312714   55.628155
H   71.694221   81.209785   46.486439
H   74.652473   78.389908   78.540314
H   90.193436   34.497986   90.303986
H    1.460949   94.110703   78.264191
H   66.647552   18.064407   31.115578
H   65.861069    3.179955   71.291977
H   83.906754   41.381458   43.512032
H    4.796112   85.377136   47.084049
H    4.709290   54.362930   59.890305
H   82.361992   31.649069   10.813378
H   99.621201   29.457003   32.010933
H   52.649849   72.102234   93.723732
H   11.098461   97.839828   62.232666
H   94.391205   20.609064   53.603535
H   79.209496   17.856756   22.714251
H   79.534767   51.597370   91.156914
H   97.894867   99.199844   98.935356
H   20.790678   16.385735   96.777565
H   54.654995   38.579975   82.455788
H   15.763123    1.968109   95.347542
H    5.261498   64.122963   45.550461
H   88.253685   73.416283   96.141449
H   45.723209   91.893478   95.083229
H   22.453785   20.970163   18.583281
H   43.959412   17.250156   68.842308
H   18.236691   12.710585   93.958443
H   33.889641   87.309586   47.238060
H    6.072771   21.864454   24.766203
H   47.676125   71.967331   75.253105
H   77.923492    9.935820   60.757305
H   84.926910   42.608360   37.804928
H   85.007683   26.393520   18.699509
H   78.176384   10.600940   14.618059
H    2.228207   45.929207   99.788460
H   56.660213   75.120377   47.670498
H   91.367012   91.175240   35.602341
H   88.305908   48.586849   42.141937
H   42.969921   22.107000   35.049026
H   81.438141   45.246075   65.757080
H   69.485649   66.905273   53.169563
H   97.384552   80.870728   73.493729
H   24.285961   37.164337   66.207291
H    3.239656    4.388839   29.036804
H   87.124588   66.125420   92.411095
H   49.495773   45.656792   14.112710
H    0.947828   65.938698   17.055828
H   48.059929   22.940624   43.381248
H   48.135265   18.486599   10.691474
H   24.103737   55.871323   45.008591
H   99.732292   78.914459    2.509705
H   74.738518   83.942459   16.915493
H   39.655815   42.423931   16.640852
H   25.682919   57.345848    4.010559
H   66.333099   16.058533   40.894817
H   45.503853   60.367912   36.362778
H   42.812828   93.423744   74.606049
H   87.281059   37.554874   85.420822
H   76.157021   68.568466   69.269569
H   35.650341   94.501366   23.605318
H    2.132510   35.312084   63.222111
H   59.751575   59.363903   43.090363
H   35.458603   39.716351   88.381241
H    8.704463    3.825988   74.922951
H   70.012413   55.625061   28.064177
H   95.760544   44.426220   42.057110
H   32.818092   30.775089    4.068203
H   19.801197   87.221214   53.854805
H   62.397057    9.387246   42.771439
H   22.325352   94.685120   39.224850
H    7.636367   36.608433   67.348145
H   82.855034   74.744385   56.212986
H   75.310303   64.548241   97.156105
H   73.088120   93.466995   79.480560
H   84.292244   40.373299   92.759392
H   80.557762   85.471680   15.295082
H   16.373108   63.054329   64.863045
H   81.753815   90.707169    1.011749
H   40.898182   91.531548   96.979782
H   51.202488   77.827118   81.060921
H   81.794785   59.849186   17.782656
H   95.597328   82.931725   48.897350
H   22.720356   56.159683   94.013062
H   33.461670   89.969849   67.512871
H   47.999199   12.034497   91.881416
H   23.331537   69.581703   23.440878
H   39.854271   70.238350   96.479179
H   20.159311   79.934891   51.833126
