100
TIME:    6.021, STEP:  6021
H   10.146980   69.865807   93.633621
H   34.188942   31.133001   57.749950
H   83.258652    7.079161   52.667736
H   82.487213   84.584564   10.130788
H   41.241501   55.367126    2.452023
H   34.651463   94.685097   75.026665
H   37.409687   67.905571   61.303120
H   46.647568    9.495542   55.366413
H    5.620262    7.398786   21.086042
H   10.305754    2.836227   43.464237
H   40.196274    8.510584   59.775490
H   26.035873   25.492023   64.347664
H   59.854385   97.488045   26.744804
H   56.956779   86.517464   15.440342
H   53.735619   32.207138   61.350101
H   59.432632   85.110268   33.245819
H   39.934181   80.212761   21.503729
H   29.823195    1.857243   90.806679
H   39.045872   30.941713   80.571365
H   30.300949   77.949013   26.270258
H    6.982033   56.808529   93.823647
H   39.619476   52.076950    6.534486
H    5.353672   45.653816   60.082672
H   59.621105    8.856905   59.902561
H   14.239137    8.663712   81.006325
H   19.099207   48.664421   24.230038
H   42.881477   92.190811   19.432074
H   24.507576   37.479622   65.797684
H   42.091988   95.364502   72.556396
H   31.864216   41.820152   62.040756
H   53.020935   61.969326   33.016579
H   45.926792   86.158127   41.869911
H   94.467888   27.956930   40.216187
H   32.504021   21.933891   18.095995
H   31.106369    3.777769   91.365677
H   96.033188   57.019402    0.496255
H   57.290550   84.032837   82.896645
H   15.134344   48.767780   47.326107
H   90.923370   50.228813   60.832603
H   96.082779   48.517818   11.753771
H   23.758701   62.775505   84.197853
H   92.796799   65.214493   87.342125
H   63.103237   99.606094   36.377357
H   94.883179   13.705160   69.436607
H   34.378819   94.335037   71.343491
H    0.405428   77.758194    7.622172
H   88.773727   52.280716   83.261086
H   56.560970   57.384323   41.123264
H   41.028893   33.790504    4.292855
H   52.156345   22.374823   62.546104
H   43.088161   88.354538   16.898029
H   97.742516    5.035278   78.794868
H   33.765942   56.920532   53.179539
H   37.258682    8.962539   97.507347
H   61.394035   86.256653   51.560604
H    1.094908    6.200215   87.657745
H   77.956551   15.813624   28.634758
H   77.719635    8.278177   58.468491
H   65.139084   93.170631   49.249611
H   61.693535   90.581787   92.359032
H   39.510334   98.568375   44.950863
H   85.220863   71.899460   22.922379
H   82.826515   96.420448   20.592407
H   56.491890   74.562057   63.672985
H   71.308151   79.957352   56.278660
H   31.466305   42.951256    2.191905
H    4.492020   56.522038   57.756302
H   64.454094   61.884800   54.041218
H   56.989475   17.155663   82.606232
H   52.368111   50.981842   89.054626
H   30.839558   85.731964   89.922218
H   77.507645   51.699753   97.450912
H   14.410698   20.483467    7.367661
H   97.665840   68.348778   45.405754
H   52.466663   37.224842   57.830826
H   68.001152   93.462212   90.792694
H   13.622367    4.685381   97.532372
H   14.857860   57.022995   46.957870
H   50.240658   35.833149   84.858589
H    4.249917   81.027046    2.206715
H   28.693850   91.571671   39.849659
H   93.105286   83.517838   83.284142
H   98.715523    7.811262    3.352476
H   64.383522   27.389343   13.492269
H   59.156563   72.268974   64.083969
H   12.715664   30.214710   59.899734
H   69.283699   65.577034   10.648031
H   52.863243   23.266794   33.149376
H   80.635605   58.932442   78.946785
H   34.001194   61.557697   39.453316
H   70.426781   98.548965   60.614300
H   23.791925   48.315826   48.248962
H   71.411209    8.178151   84.617752
H   29.174126   78.460274   32.785721
H   52.492699   10.404514   54.441959
H   91.231476   57.968719   56.456482
H   84.683891   13.213391   90.915878
H   26.655405   84.377350   58.008102
H   21.886322   62.804462   40.715645
H   13.199364   24.126633   17.718136
