100
TIME:    7.709, STEP:  7709
H   95.994377   15.068992   92.088211
H   87.573288   22.602909   64.183853
H   12.281595   28.519836   32.847851
H   82.770538   15.039536   17.605751
H   26.119734   90.667686   56.682327
H    8.470565   92.856361   42.194283
H   48.940701   81.886459   93.306992
H   13.974098   55.527531    0.378301
H   64.125938   45.104523   14.832413
H   64.199593   27.074816    9.557056
H   83.182632   76.431000   97.179886
H   61.612373   10.102852   44.193657
H   52.172417   95.370789   59.006832
H   73.377724   81.314583   43.898930
H   74.239510   81.426956   80.175568
H   91.560471   37.471741   93.126251
H    4.195070   91.861710   75.169037
H   65.920715   19.718857   32.294128
H   65.331375    1.753548   69.500565
H   84.822952   42.103367   41.197151
H    6.813721   88.761780   48.006733
H    1.449677   54.317795   62.785721
H   82.815941   31.925459   11.786191
H    2.780292   29.050264   34.536186
H   53.865913   74.798431   93.472633
H   11.258770   98.842148   65.432243
H   97.322937   22.022402   52.928837
H   82.078453   16.269751   21.590403
H   78.795479   48.512592   92.764153
H   96.591125    0.041339   96.232414
H   19.452566   13.336941   99.467537
H   52.508205   39.519260   85.603340
H   13.368153    4.455652   92.284554
H    3.824879   67.238869   46.982864
H   89.099846   75.990562   94.072998
H   42.767612   89.230484   95.190102
H   19.192745   22.215410   15.904206
H   45.364578   17.872456   66.442863
H   19.671947   13.451300   97.253334
H   37.091927   90.492416   44.562874
H    8.396368   20.697935   23.965178
H   50.541451   71.834000   73.517204
H   77.630890    9.731867   58.301571
H   87.098083   42.037682   34.480724
H   87.957054   27.734875   15.789955
H   78.615288    9.952571   14.479929
H    1.962420   44.080208   99.462135
H   56.658138   74.770187   45.566769
H   90.372993   93.991280   36.958740
H   87.592041   48.069347   44.519333
H   42.972256   25.389570   34.690536
H   79.785767   48.401150   67.988953
H   68.780602   66.708130   55.144112
H   98.172089   81.425323   71.993362
H   26.993183   34.184616   65.918320
H    3.197309    4.424603   30.194244
H   84.968979   67.106468   89.177422
H   52.027512   48.867638   14.988507
H   98.266197   64.502144   19.666035
H   50.303474   20.327175   44.348289
H   45.990551   20.067768   13.342341
H   25.310463   56.187790   46.547089
H   97.424156   81.234528    4.841187
H   72.403923   83.757248   17.838696
H   38.306160   45.139584   13.474494
H   27.771473   59.036095    2.000149
H   69.060944   14.883125   39.253338
H   47.852455   58.423454   34.737381
H   41.118172   95.866768   76.738312
H   86.590538   35.847248   85.492935
H   77.236641   70.881790   69.677345
H   38.450039   95.630272   21.113138
H    4.349372   36.993771   64.093979
H   60.499943   61.515621   45.110565
H   33.820755   39.666286   85.803329
H    7.900645    1.646871   77.210854
H   66.924522   58.567947   27.461203
H   94.163162   46.649273   40.179317
H   31.187765   30.874958    3.688766
H   21.468487   89.073326   56.783943
H   61.731438    9.035501   40.739304
H   19.774029   94.464630   42.069164
H    5.485784   36.039829   64.110321
H   80.515770   71.834961   59.318256
H   76.965790   66.675316    0.452027
H   73.870468   92.218246   77.119507
H   82.021461   42.845375   91.138145
H   80.010948   88.192261   15.647606
H   15.667413   64.947426   65.141121
H   84.759735   92.105850   99.796341
H   39.506763   89.695518   96.261765
H   48.686832   75.269958   80.412941
H   79.615311   58.828968   15.153384
H   92.311256   80.868980   46.604778
H   23.308285   59.205292   93.231750
H   30.653412   91.312500   69.269005
H   50.697990   10.083360   93.836769
H   23.397165   67.899239   24.123487
H   41.473961   70.091530   99.326866
H   18.047541   80.807510   55.108562
