100
TIME:    5.409, STEP:  5409
H   51.533607   25.988632   94.193924
H   51.091408   97.968460   19.159878
H   72.734299   63.049057   59.853619
H   82.384491    9.799084   43.677597
H   46.723129    6.312644   19.044914
H   44.143925   95.348122   14.417414
H   69.483147   26.579014   13.443925
H   94.749557   56.548283   11.556882
H   20.664391   66.240082   59.610863
H   27.025972   94.048592   19.499640
H   97.123032   83.885529   18.727581
H   49.395828   94.816048    7.910859
H   98.907486   34.498070   87.556328
H   87.259819   88.403816   68.868324
H   46.292931   86.874008   90.766418
H   84.039261   38.638199   84.046600
H   89.147438   39.733685   65.790955
H   16.735456   31.634998   12.022169
H   29.515446    5.265903   48.328213
H   46.787857   90.948036   84.602516
H   43.298988   17.733971   10.435139
H   80.946442   51.264511   58.651962
H   13.525731   50.631172   77.592133
H   16.483551    1.535616    5.353227
H   36.126495   57.199936   76.486549
H   21.889048   66.756821   81.779556
H   95.654526   17.630764    7.288315
H   76.145576    8.913521   45.566498
H   28.784798   39.838505    1.486596
H    8.398827   56.967003   13.388695
H   28.932884    7.091471   81.436073
H    7.284833    3.069185   98.525856
H   51.360561   72.734245   85.082390
H    6.644183   78.020195   43.877998
H   46.318726   50.041214   54.097450
H   42.832447    9.084553    2.420932
H   98.592865    6.445564   34.673260
H   40.427837   59.969166    4.140505
H   16.755772   63.564018   20.139917
H   53.725513    5.810392   63.604473
H   65.584839   41.778160   69.779396
H   45.490379   54.617775   56.915157
H   57.831722   95.936111   92.171944
H   33.960621    3.432684    9.599767
H   87.464897   18.481247   18.973276
H    8.302904   66.085220    5.135828
H   83.992477   18.997822   77.387245
H   56.528286   51.080917    3.256208
H   23.141228   84.476440   28.706272
H   39.320744   13.059790    5.352533
H   43.131947   47.439667   10.446540
H   67.999779   61.825550   18.970688
H   21.070415   53.371948   88.722832
H   51.429672   18.949112   70.500755
H   10.122089   32.623608   46.354458
H    0.332606    6.843980    8.491684
H   39.158577   33.472511   70.428337
H   23.290134   66.074364   74.231674
H   16.873564   67.312660   96.230995
H    2.081572   43.542339    9.765755
H    0.904050   27.028877   92.668114
H    6.941319   77.595871   50.615341
H   41.277515   38.183029   62.559082
H   14.465487   71.228256   80.286057
H   47.015762   28.835903   99.285225
H   69.062584   73.375694   66.005623
H   53.594482   35.365940   28.209370
H    6.729121   26.884214   24.784079
H   26.485662   61.130089   20.989059
H   39.971413   20.198772   90.343323
H   50.272865   27.372238   97.262184
H   27.970646   72.010727   52.644188
H   54.314621   50.753822   23.060806
H   11.137348    7.083849   81.769402
H   22.961340   36.351704   11.436726
H   53.532623   54.239861   31.972765
H   58.057873   57.730839   86.709190
H   86.104980   97.038765   13.157708
H   20.894802   37.630787   78.032234
H   34.259521   14.364560   54.931030
H   16.717379   85.240250    3.272662
H   47.171509   79.549026   34.478317
H   60.007462   97.576965   45.069927
H   22.280855   75.018845   69.387634
H   88.955330   10.547988   23.410393
H   26.802608    7.734897   17.400772
H   28.409613   10.074570   81.465469
H   43.020592   72.240723   39.494804
H   67.935410   93.008186   83.952156
H   88.110352   86.734421   17.576624
H   45.381248   65.500443   47.689983
H   78.510124    2.288189   36.589996
H   32.180679   89.816872   37.290852
H   70.026222   41.330883   91.519768
H   63.073082   65.225365   40.378361
H   40.682831   82.136444   88.066895
H   33.260979   78.092186   26.112762
H   26.719526   62.292084   69.477043
H   51.040741   60.166370   91.976128
H   75.184067   39.830288   76.674988
