100
TIME:    1.898, STEP:  1898
H   88.968658   47.965012   97.408340
H   48.473946    7.650932   97.725578
H   12.379751   10.453975    1.054919
H   81.795181   54.452843   36.127216
H   78.170837   24.890583   14.242388
H   98.584480   99.151848   66.711876
H   53.495159   89.499367   38.878929
H   70.707237   52.802319   33.926018
H    6.971535    3.808368   80.615135
H   22.972399   43.635826   82.013817
H   23.707687   42.612537   56.923809
H   83.399109   18.827349   57.827187
H   22.530956   46.875816   36.483276
H   61.103691   99.225685    1.677737
H    3.586183    0.490555   59.538826
H   25.210663   45.723557   75.490982
H   71.471100    7.514778   46.162445
H   41.703918    2.400775   33.746384
H   74.824486   57.978653   63.354679
H   41.382248   65.505234   45.557289
H   51.646622   67.266296    5.729736
H   44.340519   46.605080   57.644608
H   60.402992   79.185905   78.045853
H   42.696770   59.445255   66.113373
H   61.700432   35.645317   50.565826
H   37.956150   71.052628   11.273063
H   98.411781   63.581783   37.630039
H   72.393509   45.031933   29.509649
H   52.441086   21.293367   67.452843
H   73.771248   43.864609   34.273678
H   90.763680   92.248322   59.221348
H   85.598145    0.074862   23.556679
H    4.049595   29.615108   68.783783
H   58.296379   99.782486   91.791977
H   33.594063   15.446069   40.302917
H   37.578747   33.581570   14.115029
H   61.841026   35.028175   58.020267
H   85.543297   24.215313   56.376965
H   65.395309   39.991295   60.213623
H   84.422829   34.498669   87.365005
H    5.534775   21.308523   87.060593
H   61.039764   97.039925   91.971420
H   27.589422   74.881683   38.567894
H   58.158974   44.581398   66.309494
H   92.018181   57.003506   18.527151
H   53.600719   99.118233   90.877480
H   56.121204   28.127100   43.841499
H   56.340778   14.925058   86.015434
H   20.511335   75.256493   68.764023
H   65.696312   59.638172   50.915211
H   43.399815   86.403618   73.429062
H   97.372856   87.618927   49.462589
H   48.251541   33.013977   92.636650
H   32.739483   76.240364   15.570055
H   89.660095   24.893450   16.511915
H   95.941055   10.537241   28.014404
H   16.577402   34.781197   36.503120
H   84.728119   97.644577   64.667557
H   39.967697   18.963648   65.774017
H   33.770191   73.675140    9.626367
H   79.427811   90.306465   66.411613
H   31.547474   10.277864    9.474969
H    2.972293   77.723763    3.347897
H   73.372498   52.119141   75.611488
H    7.656165    9.253501   72.318939
H   84.748207   47.917793   58.409924
H   35.288925   13.982242   58.697948
H   49.257988   26.086216   56.937977
H   51.499481   13.408142   41.193703
H   68.834778   43.607330   97.736481
H   61.762428   66.260872   39.383915
H   17.468615   88.534027   95.584068
H   83.238220   24.423779   13.080479
H   88.419792   29.269995   90.404778
H   53.680733   31.344328   45.279522
H   70.530876   29.216230   68.217125
H   39.281036   62.042046   24.615782
H   21.151821   26.614702   19.258785
H   52.530167   47.942234   38.854179
H    6.443857    5.584341   57.406776
H   48.024456   48.917339   93.428093
H   83.732254   56.622940   28.068254
H   37.889263   38.936218   10.674946
H   80.735725   74.575905   90.068573
H   59.912720   30.163139   63.762634
H    7.606153   78.772408   73.586098
H   93.917839   65.352859   14.047344
H   86.509216   53.336060   76.011665
H   95.070503   88.494926   12.671446
H   98.529251   31.186523   92.067116
H    1.696510   75.917221   73.544022
H   18.720064   38.253170   69.685509
H    7.063713   84.502426   65.749588
H   30.676670   28.359968   54.790115
H   23.776814   79.718567   59.700493
H   50.688614   20.781229   69.414734
H   11.948270   76.602882   28.033722
H   13.833949   32.398010   25.667755
H   18.296562   45.031826   86.064346
H   57.113571   29.950848   14.881126
