100
TIME:    7.159, STEP:  7159
H   33.187820   65.506233   92.591751
H    2.763073   92.798973   29.502705
H    2.827344   88.951469   39.305752
H   82.678223   37.700409   47.754208
H   31.048132   46.582760   71.595505
H   17.000446   93.452217   87.725998
H   77.766174   44.748203   50.296276
H   57.203011    7.947015   50.878845
H   77.645988   97.984619   49.453945
H   79.221870   19.177629   88.021553
H   34.342285   54.300419   50.157967
H   82.602081   82.534409   83.343895
H   87.243980   28.660061   13.665131
H    0.610822   83.009834    2.042176
H   67.559212   30.555656    6.627280
H   13.675430   85.576599   38.781738
H   48.422951   55.481922   25.100367
H   54.159542   46.482010   51.357315
H   56.766346   78.682739   40.525234
H   99.643814   53.781300    3.750618
H   39.451508   43.516647   62.932499
H   48.720642   53.587662    9.623260
H   90.159233   36.398537   27.523634
H   53.884216   22.470675   75.384705
H   73.537544   18.415169   89.410744
H   13.852001   15.054173   17.188772
H   44.750576   44.886398   42.014606
H   28.486404   90.597633    3.409784
H   66.836403   98.612801   18.762239
H   75.501190   13.654749   52.508354
H   97.806114   64.015976   42.981712
H   17.780727   54.713581   36.519554
H   74.628059   44.695503   42.736214
H   80.586327   17.642960   70.154099
H    2.787868   17.633247   60.612335
H   94.957619   46.152634   96.918922
H   66.439377   42.358032   72.566559
H   68.095970   27.939060   27.632248
H   42.889339   25.433455   50.551849
H   88.895622   41.981831    1.289292
H   45.984314    1.827629   11.007818
H   96.892311   69.677170   45.439228
H   72.897614    6.432631   18.576458
H   22.217731   32.806114   80.704338
H   35.665741   49.433254   68.725044
H   85.715202   99.463821   12.245470
H   97.664352   14.168679   94.183357
H   56.624569   69.105362   11.535992
H   74.293282   39.541294   58.900497
H   76.044189   39.697994   82.975136
H   43.010021   78.488129   28.892559
H   53.056179   99.436218    4.092933
H   57.372982   63.519043   87.085335
H   10.908051   90.396729   47.722733
H   70.784622   85.985512   61.241314
H    2.512285    5.003150   48.917542
H   50.100506   82.976372   36.868004
H   92.982101    0.807823   29.156790
H   54.891266   41.259663   61.888481
H   86.598732   78.053055   59.991600
H   11.295532   45.644386   56.223038
H   44.831032   61.307114   71.433304
H   60.086224   18.765656   42.556335
H   34.635159   80.761185   32.772854
H   16.474995   89.066864   62.255527
H   61.558746   86.378319   69.479797
H   13.188391   95.868347   12.698470
H   85.844551   26.968653    8.444198
H   13.704700   35.386246   11.231854
H   75.423790    8.218005   86.658325
H   94.701088    8.303433   76.273720
H   83.736534   13.898355   80.798943
H   40.211426   64.197495   78.193176
H   72.608864   96.326721   77.790314
H    7.328110   38.856426   44.101826
H   94.898766   66.398949   14.219928
H   16.972717    6.170236   17.707212
H   68.323166   82.611229    9.803477
H    4.814474   32.490482   97.552040
H   48.440628   19.034866    4.166991
H   50.964073    3.345498    7.866271
H   78.501839   90.897888   88.082329
H   70.698982   26.841833   11.729662
H   42.677097   24.770428    9.553694
H    3.745726    1.083773   53.767586
H   86.526108   72.017899   38.925995
H   45.288212   82.834846   64.912102
H   71.165428   32.203205   21.350197
H    4.251913   95.571053   69.639412
H   33.386745   14.734318   80.133102
H   16.998524   59.995613   84.646774
H    7.992403   33.904144   69.930916
H   44.359119   42.325443   72.621040
H   39.156174   47.501060    9.519298
H   32.818718    8.469345   80.592896
H   85.225616   13.031077   97.677055
H   94.354912   78.520126   25.468636
H   24.458796   40.686497   35.165100
H   67.674828   67.716499   45.396503
H   83.884102   94.923416    8.090615
