200
TIME:    0.467, STEP:   467
H   16.446474   61.721630   19.221136
H   29.987545   36.192104   99.112473
H   13.379925   79.073906   56.529167
H   25.494352   79.626991   38.563702
H   12.800026   89.482529   50.394787
H   82.233887   46.653858   58.830433
H    6.648047   55.143066   54.045124
H    7.975570   98.688782   17.014793
H   96.647232   84.103096   42.181755
H    2.870404   71.719170   87.118675
H   20.105841   99.443428    0.135086
H   31.716476   48.081799   23.558319
H   16.745609   94.541527   51.988060
H   93.674377   54.164661   53.204311
H    8.662292   73.692047   42.420063
H   22.683769   16.613388   49.426136
H   94.886139   18.350031    4.410845
H   31.171793   94.079567   39.479042
H   72.578117   21.483747   45.825481
H   90.778442   76.587303   28.671078
H   60.809311   88.089897   15.440591
H   84.975426   57.491051   61.827003
H   88.207611   60.890984   43.689468
H   13.416343   90.128769   90.874283
H   13.113104   21.833612   37.310383
H   18.473185   72.410439   99.459274
H    3.291683   63.351582   58.208832
H   99.719757   79.493668    1.328572
H   20.629395   49.629951   37.009151
H   82.791542   26.845383   90.773590
H   13.065125   60.932987   16.472345
H   27.798134   68.826645   99.191879
H   21.638458   13.870069   75.951881
H   88.913689   63.825577   42.258018
H   37.094959   80.421188   32.492413
H   25.646244   44.746250   82.079483
H   92.779770   69.529533   87.659096
H   21.686708   50.627228    4.961084
H   44.668938   38.272072   49.477444
H   87.905785   38.755009   54.829193
H   80.571854   94.619728    9.058916
H   24.638048   38.346836   33.100216
H   72.614639   82.567261   58.757305
H   36.775558   74.258995   26.866920
H   36.533016   83.220909   52.555672
H   37.865353    7.930863   45.156662
H   84.251877   15.090943    1.156231
H   84.589417   65.547142   39.487076
H   95.859230   20.137829   61.329994
H   53.994049   18.825907   96.108864
H   72.808258   67.622940   18.872520
H   12.460658   39.605083   68.422142
H   58.298496   87.927322   10.896953
H   19.028143   86.974060   85.064728
H   67.590469   71.336525   83.431946
H    2.395676   66.757843   86.081421
H    4.782655   17.604469   47.219578
H   69.888718   63.856411    1.206366
H   23.391235   78.862564   12.616737
H   37.853119   94.714516   62.797905
H   49.684338   10.947575   35.604298
H   94.015831   16.962629   50.806061
H   77.701103   29.908936   77.226578
H   29.626032   65.476196    8.735737
H   74.997429   79.463150   27.212006
H   29.835171   25.380253   36.943588
H   77.695900   18.373793   90.525032
H   96.070229   91.966026   91.765762
H   24.596909    8.920827   59.106628
H   43.930267   45.586449   50.970470
H   58.365582   80.518288   79.353287
H   25.760714   17.855099   43.175835
H   84.698380   29.587521   91.894569
H   15.260675    3.975080   67.181007
H   81.909103    4.546181   56.939186
H   59.051453   11.062496   61.394123
H   94.468124   38.400867   68.934685
H   18.147432   10.103485   40.205284
H   13.256371   39.806793   29.910831
H   64.855644   89.400948   83.496307
H   53.002506   26.265518   97.763657
H   36.617874   64.508224   80.839684
H   10.114077   16.156300   83.637985
H   17.271610   69.282402    1.250042
H   30.824703    1.724272   51.349155
H   31.062586   77.831955   23.057407
H   46.029102    3.257127    2.291739
H   73.443748   10.095685   20.004133
H   72.633652   72.609764   77.988342
H   22.307156   96.221909   52.368145
H   31.727060   36.852409   79.744804
H   82.474228   90.527115    3.320937
H   58.043198   14.301958   89.264748
H   49.848785   86.278259   75.337677
H   30.876883   53.855591   77.394073
H   59.871468   32.784550   18.388584
H   82.384865    6.427707    8.105536
H    0.654324   31.966101   50.742825
H   31.874245   67.504082   53.685703
H   71.151367    1.616028   27.305826
H   19.994108   86.702698   79.628914
H   99.013451   80.090874   64.612457
H   27.884893   28.874119   33.674973
H   32.783638   68.358597   99.176765
H   25.037827   24.489582   32.447128
H   96.409790   15.659023   33.263134
H   76.411499   32.915405   55.202789
H   63.413811   42.990025    9.963893
H   78.565430   37.224270   10.109196
H   11.658782   24.895391    6.648261
H   50.181156   94.094177    0.955562
H   95.108803   69.053650   93.096848
H   53.151432   82.908836   88.997803
H   62.455223   14.503508   69.100250
H   56.275047   91.421127   18.813406
H    4.774490   99.156578   89.174950
H   23.241879   11.639097   86.826401
H   39.619419   38.169655   29.441002
H   27.483170   66.236153   72.320587
H   76.773178   51.205441   57.810749
H   42.923775   23.267895   80.081436
H    8.494492   22.102566   54.865398
H   37.709114   12.248691   30.763103
H    0.732805   59.150097    7.924513
H   70.123970    3.331653   85.305466
H   56.038799   68.563156   21.148449
H   89.744194   50.249832   62.288025
H   70.463394   89.350334   36.919758
H   95.261230   44.266800   79.717163
H   78.747780   23.073420   70.368881
H   57.772293   77.080536   12.086292
H   72.986954   88.302811   14.680203
H   91.696510   93.638885   99.063728
H   89.789818   18.823097   52.501194
H   15.640141   97.265610   45.985817
H   56.312111    1.335517   80.337357
H   69.268532   87.142967   66.639130
H   93.154579   57.133263   79.611664
H   52.246628   47.508156   71.496399
H   43.570908   98.202827   89.150009
H   61.855778   56.393162   22.242661
H   46.788177   47.908009   51.538628
H   47.708256   60.939133   91.727638
H   47.311455   18.310678   81.886055
H   50.972004   62.238625   56.491352
H   54.257450   65.886749   18.974339
H   50.100060   95.783699   45.656532
H   36.454071   64.968887   67.522606
H   71.253754   55.314678   95.687828
H   16.697981   91.153107   81.502098
H   68.218971   65.165100   49.630508
H   43.342976    0.828714   41.038662
H   86.721123   23.350681   95.495903
H   15.910613    6.353192   70.342987
H   22.613945   59.873917   64.860168
H   70.240814   44.091763   61.044735
H   61.687389   67.691185   83.443649
H   49.273411   33.017769   15.042280
H    1.992454    0.879005   94.186478
H   61.134689   47.681763   86.952393
H   56.185734   75.187164   77.380310
H   32.946163   21.879927   33.577435
H   74.990578   24.672838   37.137665
H   19.607029   26.848236   61.486675
H   56.780685   29.790865   12.054980
H   15.824697   57.216522   61.060936
H   70.990997   93.895393   54.628136
H   23.830513   41.260586   57.399464
H   97.157425   27.431999   36.320919
H   36.832150    8.746675   87.847107
H   75.028381    8.333375   35.957024
H   38.321022   57.015636   58.155193
H   42.058910   67.700333   84.036880
H   68.430695   69.108231   79.505898
H   60.887299   93.328918   88.557892
H    7.915854   48.887016   23.504528
H   33.085777   60.012302   96.403824
H    3.741843    9.417343   67.782822
H   69.796333   16.102549   66.479881
H   75.502304   56.890114   89.587234
H   77.273445   93.324020   36.441418
H   23.806305   30.383144   77.903175
H   55.183891   89.929222   10.563789
H   56.424267   25.640465   85.541374
H   88.458488   78.488686   77.461624
H    4.012594   38.139221   85.090309
H   39.256256    0.636234    4.294918
H   79.515450   76.839912   33.469425
H    0.044620   62.185684   69.137756
H   53.741489   57.038486   68.570999
H   58.664391   23.514080   77.680428
H   45.792019   91.098129   21.733027
H    9.142685   22.924437   63.006161
H   31.137672   72.590553   37.888023
H   77.104645   44.116089   21.073744
H   75.882339   10.940459   26.456362
H   10.970174   91.749123   11.128583
H   22.312355   92.894653   40.564846
H    8.886213   12.247059   67.864830
H    5.640158   27.302095   94.595055
