100
TIME:    9.226, STEP:  9226
H   93.405670   75.953499   90.699356
H   45.676163    4.806388   59.835056
H   38.357349   37.658836   15.041142
H   83.025162   52.539665   34.453842
H   12.526316   12.261656   15.551355
H   84.949463   91.212883   92.427490
H   69.433983   84.321709   11.938396
H   94.740891   86.768234   61.094032
H   26.835182   99.249557   19.342997
H   22.764128   48.856693   68.955940
H   42.074982   37.469055   51.052940
H    3.708694   86.142433   36.211800
H   55.438278    3.551556    8.253353
H   98.265671   76.638771   59.343868
H   92.664986   45.921028    7.223381
H   30.566452    4.789207   67.202209
H   82.206917   92.199455   13.267530
H   98.358658   45.901695   79.707108
H   88.965057   65.397430   49.422123
H   43.950001    9.889532   44.481560
H   16.792793   37.740082    6.834779
H   46.885952   56.331635   33.599136
H   62.561806   19.593584   68.383682
H   61.830387   47.197968   21.870871
H   99.610580   54.493362    4.673843
H    4.104488   54.121017   22.673967
H   66.511681   58.964848   83.024948
H   54.077927   87.078201   71.736656
H   11.781549   86.147087   21.053825
H   54.758568   62.495956   16.829136
H   79.157600   49.368603   79.447342
H   48.292530   97.609070   45.167030
H   20.223694   93.464752   28.947897
H   67.922531   28.214752   83.075142
H   51.346138   61.132332   86.370026
H   74.637985    8.052140   90.421700
H   64.691498   66.658943   35.437946
H   82.663902   90.112617   73.493629
H   55.641239   80.398888   50.244278
H   94.207535   48.476494   63.918343
H    4.720182   72.747223   59.705044
H   22.696991   77.782928   50.963673
H   90.686127   18.832661   67.875298
H   90.236000   67.507484   82.803169
H   56.367950   67.892967   45.606594
H   59.035370   38.882641   20.642973
H   13.822167   26.580088   14.030293
H   56.750729   90.394806   39.429752
H   34.714951   68.352028   76.446228
H   19.437498   71.162651   38.450878
H   42.868092   78.932549   50.685516
H   53.512859    7.634335   68.406563
H    0.238227   75.504211   67.042313
H   63.034378   56.677132   38.933418
H    6.206679   67.128296   78.811523
H    5.086731    2.828867   78.551971
H   81.139938   23.334389   33.456917
H   39.068542    5.604984   75.914207
H   17.913780   28.600557    3.204954
H   50.197132   36.929470    1.201202
H   41.685291   49.518612   95.066399
H   71.469139   42.067764   77.908714
H    0.413265   77.717186    0.815948
H   76.573486   92.020935   76.654984
H   98.517960   23.977955   54.746006
H   34.581001   83.621880   91.697487
H   47.349503   67.326538   12.493160
H   43.062912   45.182625    7.258759
H   16.723749   86.864822   81.594421
H   17.400253   12.043438   82.275421
H   29.058479   67.662697   51.483345
H   13.528842   45.261131   32.308201
H    5.439411   61.953007   25.194439
H   27.109554   65.505043   54.975807
H    6.897137   41.900028    0.823273
H   43.767174   98.872429   75.135818
H    4.700173   27.266537   54.369293
H   65.426292   47.461876   23.967102
H    3.934893   26.419048   20.619120
H   47.073326    6.434972   26.092979
H   91.429787   24.729563   31.408867
H   33.607880    4.306780   15.157106
H    1.438111   61.409580    8.580037
H   84.882896    1.647723   20.765141
H    3.101852   71.777573   53.396393
H   38.955608   47.941116   82.464569
H   83.338524   32.546806   63.474464
H    4.408149   66.802040   99.918823
H   47.151127   80.483574   52.734016
H   50.637012   29.693604   54.022362
H    1.588642   71.606308   28.298363
H   60.929470   89.363098    9.320848
H   76.857941    4.339483   32.465324
H   38.922295   72.903671   48.892559
H   97.077347   23.320553   28.088671
H   55.951370   31.406614   90.913849
H   30.285507   97.140160    6.592155
H   20.468996   42.962566   93.665855
H   69.207695   76.642296   72.263969
H   12.274582   41.879856    8.969580
