100
TIME:    2.618, STEP:  2618
H   40.277252   81.937431   96.749161
H   28.445869   46.689140   43.142597
H   24.755850   62.253372   92.605934
H   81.916031   24.789087   96.661072
H   71.721863   82.601761   94.720688
H   87.422371   98.371819   38.015141
H   15.761442   38.117828   95.183861
H   14.116661   15.092749   67.818794
H   89.272499   34.583450   35.293049
H    3.298632   53.973961   10.206561
H   56.735046   71.583481   87.570374
H   55.920685   54.917435    6.577311
H   76.730675    3.314630   64.920158
H   25.453056   97.006447   56.472034
H   12.344704   36.176605   24.926962
H   96.259644   82.749176   15.724607
H   13.583259   55.129929   11.715219
H   57.090271   67.387276    8.782890
H   86.041527   88.181168    1.290204
H   21.985886   50.217220   94.578285
H    8.920792   95.586639   86.185883
H   13.370560   47.559418   96.331421
H   50.789955   73.330193   57.446487
H   75.800934   68.080505   12.637721
H   35.948479   78.541809   55.877716
H   34.654758   49.600018   43.786324
H   36.325592   33.649532   51.917759
H   11.643030   78.639107   53.310390
H   68.096603   86.617622   33.417198
H    1.379809   26.044785   91.512444
H   19.089293   56.815922    2.251121
H   31.059181   80.178642   56.902687
H   54.766788   76.937111   33.647072
H   88.717522   33.798599   61.458725
H   15.694856   61.019409   84.146385
H    0.178855   90.142143   11.640359
H   30.899601    8.658556   14.753324
H   55.782852   11.037212    7.187231
H   34.566391   24.374384   90.608871
H   16.607443   67.095711   44.013233
H   56.328487   46.012470    4.024354
H   96.330223   29.355194   25.796755
H   33.791203   79.199310   90.574486
H   12.182375   56.649879   36.708267
H   29.563829   28.598354   80.140114
H   44.311779   12.851124   93.799843
H   62.186024   67.213409   50.589195
H   56.379230   22.338083   30.564903
H   41.555649   15.627163   40.041176
H   80.791527   70.593727    0.559298
H   43.344883   16.892523   81.020615
H   32.361805   20.807976    2.193984
H   63.187454   37.188782   50.820953
H   16.067730   64.495979   47.341095
H   32.341385   88.013000   22.620314
H   96.841934    9.780558    3.503906
H   62.220104   14.005918    4.980988
H   31.114838   29.650097   46.122635
H   96.753700   49.385967   10.497553
H   86.257858   29.016150   89.148445
H   24.846315   56.821316   10.276597
H    5.996021    3.574831   76.899139
H   51.810741   28.625673   53.953293
H   22.812330   56.035767   56.064579
H   36.234768   51.749317   39.370415
H   40.517250   12.124336    0.981911
H   77.521309   38.873646   93.458694
H   99.522438   67.263367   91.358139
H   87.382744   61.673546   96.035347
H   83.424622   79.821358   96.220367
H   38.899879   17.270819   30.745041
H   58.100220   64.638763   48.299911
H   36.293640   88.809868   94.619621
H   72.577507   83.707565   47.613029
H   88.395897   32.369793   99.859604
H   87.548698   75.362785   19.771740
H    4.651990   99.635635   37.350529
H   54.978725   79.536644   59.023800
H   87.055450   45.828838   46.889236
H   71.133675   66.373718   95.378250
H   62.114422   56.366070   36.459980
H   37.755463   61.325089   67.861916
H   83.441727   50.955261   79.251495
H   30.265110   36.187225   24.304413
H   24.854786   85.126953   93.966789
H   91.036560    5.217083   23.585232
H   42.005028   13.003006   48.379700
H   98.099792   95.691162   68.518990
H   10.013218   48.405815    6.781259
H   34.871952    1.561890   17.805492
H   31.161987   14.796685   88.749100
H   71.996567   92.396782   83.407433
H   53.259739    6.078466   21.450935
H    0.266713   72.034874    3.337427
H   11.326557   15.224663   76.245903
H   10.157699   92.349861   32.226013
H   54.797684   17.921963   86.625816
H   16.477285   38.528381   14.146065
H   83.998070   48.135464   25.752892
H    1.827940   11.457773   45.535065
