100
TIME:    0.579, STEP:   579
H   78.167152   68.924080   98.615921
H   85.164268   36.137447   14.523328
H   89.712463   15.559665   16.541458
H   81.573792    8.794779    8.425694
H   89.985001   19.166924   50.005836
H   19.037930    0.583479   36.085766
H   22.625526    0.433458   35.731327
H   74.378036   38.692554   55.032967
H   39.395073   30.625000   63.642555
H   59.017418   24.698879   30.363070
H   46.397858   89.539978   83.977028
H   33.741795   52.712914   51.714943
H    6.432781   26.677246   67.580223
H   26.413059    3.292077    1.301235
H   87.544518   18.305277   22.939947
H   78.243576   61.094662   84.978012
H   77.515816   20.287186   26.071379
H   13.517198   66.543869   79.473434
H   54.280251    2.641398   93.867477
H   76.976387   93.392426   55.688576
H   29.917862   98.575409   41.528130
H   17.866261   44.864151   69.955635
H   78.013542   89.913246   15.783802
H   65.246155   43.625950   64.074524
H    8.875830   40.255459   40.834244
H   44.004116   10.357577   34.903839
H   12.150564   18.408302   11.455732
H   83.686485   83.464951   85.912766
H   23.761047    1.623702   29.801998
H   23.194628   76.509537   29.417019
H   38.877964   73.964531   63.594627
H    2.315798   36.514435   45.663139
H   11.141344   26.119532   49.957848
H    2.565931   20.660675   47.358498
H   66.379875   15.152368   59.984222
H   22.897060   29.969275   18.652075
H   35.332836   83.331398   54.088207
H   40.058891   48.356861   63.298466
H   24.690163   68.148048   86.632324
H    8.658466   57.979939   83.588921
H   95.674133   76.046959   55.982922
H   79.583946   37.843903   30.002417
H   16.228102   66.972031   43.294678
H   42.385925   22.474779   37.343636
H    6.431889    9.047601    5.653761
H   70.556679   74.088676   85.588844
H   42.193775   56.975933   32.570747
H   56.270336    1.344700    4.403176
H   81.954399   84.496445   21.377047
H   38.033268   39.562145   43.168304
H   43.500446   13.744768   59.521763
H   33.270454   10.011738   36.051910
H   20.889780   25.365967   69.243843
H   63.281208   97.755424   57.365986
H   94.665009    9.262674    5.319267
H   94.290695   11.923443   72.916275
H   32.957703   72.840111   11.055222
H   82.945251   22.207619   98.640823
H   35.941185   63.232773   67.034424
H   20.811089   72.292404   47.141441
H   96.224045   51.643738   69.251343
H   78.361298   22.556107   69.158493
H   13.505762   67.670067   93.836281
H   82.798531   44.944099   11.419462
H   55.305008   14.600037   49.482750
H   65.776466   13.489277   80.420860
H   41.114738   68.378052   95.015793
H   40.370384   50.651047   93.882149
H   85.759453    8.183067   23.918201
H   42.115234   77.266258    0.513214
H    3.645694   56.008724   55.203220
H   26.226152   32.309746   99.012794
H   69.239868   89.667274   46.902798
H   17.446709   12.738997   68.796913
H   90.087936   29.467546   45.290333
H   39.347218   44.681442   56.969288
H   19.524063   76.361198    1.279416
H   59.182800   12.860970   46.416912
H   89.305122   51.806492   24.144512
H   71.130264   77.421593   71.039825
H   22.212421   35.271679   14.594276
H   84.766136   48.008865   38.363197
H   54.430393   16.921446   85.046814
H   89.999420   61.707371   10.544868
H   24.137262   12.666339   91.624992
H   37.966724   30.321484   81.990700
H    5.824835   61.254906   51.152081
H   65.275925   58.937828   89.721275
H   67.698677   61.934273   23.463421
H   15.144787   85.461182   44.911098
H   47.717625    4.696605   45.689159
H   21.127092   39.052040   44.555496
H   22.433407   44.979134   63.707848
H    3.189666   48.353905   65.856300
H   46.581776   97.865570   29.390656
H   41.744629   72.867119   37.542961
H   16.644224    0.908188    3.890007
H    8.991048   21.167511   46.771736
H   81.129906   39.346134   96.552223
H   75.199326   63.833241   41.920273
