200
TIME:    0.892, STEP:   892
H   29.505613   60.311146   26.488373
H   33.775208   42.396614   16.366257
H    4.472311   97.676086   77.462700
H   39.820053   84.594490   27.450058
H    8.287692    0.254095   44.284309
H   68.407898   35.118690   46.251183
H   12.805541   54.841515   62.271328
H   17.499582   17.039810    1.929407
H   13.906275   77.731598   31.813869
H   87.909561   65.764885   70.354988
H   34.919170    8.521992   13.565483
H   33.473907   59.425659   43.808968
H   27.176708    8.647249   34.569389
H   73.587135   55.957760   73.683891
H   88.143570   76.963722   41.374359
H   10.296013   99.102402   40.257988
H   14.882698   38.253952   83.780502
H   21.080345   14.511373   31.912695
H   86.718628    6.097545   52.081871
H   92.130562   70.750816   12.195878
H   65.909752    9.305244   95.969727
H   75.513832   73.735939   45.449173
H   75.480827   57.800888   33.491829
H   22.418312   94.003548   89.541618
H   31.585648   38.926414   22.145245
H   18.121374   91.272018   85.422523
H   11.522239   71.879341   75.296768
H    9.473992   97.025826    2.446857
H   38.529575   36.711861   34.520538
H   63.586220   38.231030   76.072128
H   12.510254   78.688881   16.991955
H   20.069653   78.787582    9.655893
H   11.369484   23.014803   81.143112
H   74.847755   64.289253   49.686569
H   16.699072   62.859955   29.258959
H   11.758884   35.056778   86.947960
H    4.977836   60.356522   90.849709
H    0.664589   61.620899   85.852844
H   28.939606   23.053909   58.924446
H   83.829971   37.007305   38.227631
H   80.698311   74.765945   23.165581
H   45.792068   29.434610   20.497528
H   64.962357   72.804115   74.538521
H   35.828751   94.900703   42.066380
H   51.054520   96.187637   67.892662
H   31.884558   96.870399   49.778835
H   92.260834   94.268616   10.473678
H   74.242622   65.540657   24.208450
H   12.295524    4.009972   61.636410
H   38.785137   20.743841   78.129242
H   62.698166   62.243645    2.029657
H   96.214836   46.920147   77.559486
H   69.763145   75.776970   16.447304
H   12.702639   95.942795   91.358406
H   49.601120   61.884659   69.687019
H   96.947929   56.286636   99.998199
H    3.569796   19.212746   42.660633
H   74.531967   73.736282   93.534782
H   14.423311   87.072556   22.895573
H   28.023502   92.328041   54.941345
H   48.307899    2.655727   23.186596
H    1.654818   17.969423   54.064766
H   89.409744   38.712494   62.888149
H   39.924004   66.082542   18.224892
H   81.829361   85.798981   44.591541
H   13.163154   41.891350   44.582901
H   61.820656    9.408813   99.305702
H   93.690239   92.932289    0.180046
H   39.713806   14.664092   53.727333
H   41.483807   52.993923   50.947773
H   58.179138   87.869019   90.721466
H   13.816181    6.684215   40.200848
H   98.187149   36.935009   77.663269
H   29.106909   94.633385   79.554359
H   87.084122   11.425941   36.955704
H   69.793831   96.058479   58.616928
H   92.671783   54.222610   62.922810
H    2.406230   17.842505   25.672432
H   16.491251   58.736717   20.485441
H   58.450314   87.030685   63.340973
H   71.040489   19.082586   91.453766
H   55.305981   56.864155   67.701103
H    8.455947   20.818193   71.203026
H    3.412453   83.179726   15.101483
H   15.690369    6.218518   39.304916
H   43.035553   62.961884   14.210348
H   65.077034    4.142733    3.266109
H   69.909431   94.278046   36.034004
H   85.642532   73.644119   79.518799
H   20.178459   15.272524   47.692471
H   13.911947   40.521290   77.854431
H   79.513832   94.255981   12.594364
H   78.233719    9.508743   77.160522
H   30.790983   71.009361   87.007408
H   41.645287   48.106651   95.094841
H   42.271217   42.286674   98.406075
H   88.150017   91.726891   26.409233
H   96.268974   39.826176   56.278564
H   22.244041   63.246689   55.191841
H   78.541008    8.521505   27.409586
H   38.956203   98.453491   99.641579
H   14.816228   86.520737   62.268135
H   36.694748   13.341838   39.613598
H   53.204857   69.143280   16.054729
H   24.474443   18.904388   46.226101
H   13.235811   94.851334   13.364871
H   89.246651   36.935856   51.713055
H   60.908985   59.307869   93.530281
H   89.366173   31.859566   30.660114
H   25.311296   18.969736    8.728319
H   55.772835   90.400978    1.254580
H   12.173199   79.740906   97.937889
H   45.769897   87.840668   79.753456
H   61.015556    5.341093   58.141495
H   42.092384    9.118423    3.911391
H   87.430305   86.724861    8.348053
H    5.767848   17.623632   91.780930
H   37.463161   59.088596   20.945671
H   43.622902   82.192459   51.316700
H   87.988960   59.687801   73.665909
H   47.359505   26.092106   66.154930
H   90.157532   12.034626   67.366394
H   47.955391   94.323929   43.371456
H   94.471497   43.856880   89.312859
H   57.406914   92.809471   71.249260
H   71.608582   80.191498   12.942772
H   79.180153   52.234238   45.874527
H   61.167168   92.683617   40.509197
H    0.491388   28.882793   70.031837
H   99.347336   21.059021   77.609367
H   74.928322   61.905670   28.327938
H   56.673973   92.518051   24.702747
H   90.308723   14.315699    2.225896
H   68.950317   29.719494   57.731335
H   36.635288   89.580902   26.456284
H   44.992569    0.790069   74.076103
H   69.972153   88.225960   87.796394
H   96.779686   43.863361   72.896461
H   63.355408   53.451645   71.395882
H   43.801125   77.820518   77.340851
H   82.896317   43.894974   35.971375
H   27.223175   60.821236   61.446064
H   34.046013   68.760658   77.392578
H   27.837044    2.926334   88.928749
H   70.949005   48.143509   70.388672
H   69.830132   73.208298   98.619408
H   60.151787   93.922508   42.613453
H   24.849190   49.148766   65.084251
H   82.615448   37.570137   91.462860
H   30.245926   95.793114   65.597672
H   53.239822   72.382889   46.422062
H   61.233429   89.068260   27.720123
H    6.464747    7.459225   80.577194
H   27.145042   16.108599   59.839909
H   39.466801   71.098831   72.548119
H   82.857353   45.145573   74.121338
H   66.136093   80.437424   88.475998
H   55.315796   26.198807   24.999165
H   82.540764   99.277451   78.424721
H   56.369846   30.340834    3.261873
H   60.360443   57.920891   66.080223
H   12.991091   19.677464   29.895584
H   93.284721    6.142824   36.960949
H   35.207306   39.333454   43.304398
H   52.711357   44.211853   16.230883
H   23.147057   43.693707   58.737690
H   63.672691   87.021309   59.133579
H   24.201778   60.597191   74.973770
H    2.932915   26.049887   35.317368
H   56.227119    5.539445   83.061188
H   66.909180   13.387610   35.921356
H   23.638552   41.229561   59.460297
H   50.270523   49.437321   72.078568
H   63.197060   58.943825   89.366318
H   41.134033   90.131821   68.574409
H   21.033684   51.187462   23.924698
H   28.719761   73.289825   14.181137
H    7.508599    9.822655   73.217239
H   58.926739    6.222272   61.509953
H   55.286064   61.449059   95.582603
H   69.514160    8.554543   26.560368
H   32.378609   30.901943   93.418503
H   35.613827   89.478516   18.984543
H   65.679665   26.426769    1.176647
H   93.954514   60.055115   75.710678
H   12.909679   41.725418   87.217384
H   54.054993   93.356789   13.711927
H   59.097473   94.842232   48.341118
H   87.736122   64.080849   73.995010
H   61.469971   54.726589   73.940567
H   78.966064    9.453011   74.645454
H   42.307961    2.648002   16.319685
H   18.582909   33.035423   72.743202
H   23.713175   89.552032   46.453068
H   62.519745   25.133209   19.683525
H   76.919937   11.983326   20.633656
H   13.795196    3.338114   25.473372
H    9.960691   84.447960   28.578972
H    3.218755   13.436243   48.857338
H    1.207404   12.903084   88.690475
