100
TIME:    4.131, STEP:  4131
H   37.959137   43.187531   95.363968
H   86.387733   28.716394   38.578529
H   50.762848   71.104774   74.852379
H   82.169983   62.453117   13.728385
H   58.170059    3.875369   53.695892
H   63.966419   96.732674   87.852837
H   36.464741   40.282932   13.502587
H   95.197838   45.985416   28.899128
H   52.080070   89.114502   40.055317
H   61.951088   75.698402   69.457123
H   15.999466   32.462101   41.830578
H   98.170082   30.756144   98.880486
H   80.459518   11.780209   14.545242
H   50.537819   92.342964   71.611786
H   30.750454    1.030146   52.199978
H   35.426590   50.416740   90.131775
H   91.916603   55.203167   49.449577
H   89.413902   93.809975   56.327595
H    9.610073   51.655304   80.999069
H   81.221275   18.089788   97.590355
H   19.137314   44.963688   45.120224
H   58.423340   49.567947   67.485474
H   30.589226   61.025063   14.156953
H   35.226860   86.226532    0.268216
H   81.836212   58.551537   67.048195
H   27.714891    4.530784    1.958516
H    5.857706   70.757950   81.934914
H   83.979919   49.260818    3.318894
H    0.995003   23.888519   61.897530
H   59.393951   88.597191   11.791412
H   78.636955   92.490532   82.547371
H   26.590925   38.375984   16.836662
H   61.340633   66.238686   69.950058
H   52.646347   95.141327   97.719521
H   78.085419   46.648247   76.276794
H   31.738012    8.986801    6.441267
H   76.015152   53.249985   33.971851
H   93.250969   83.352226   13.955362
H   70.703339   91.411064   43.987404
H   74.098793   25.452629   63.053982
H   52.926941   97.930115   39.670269
H   60.350388   97.258621   96.879730
H   46.823559   88.272324   99.860863
H   15.566763   82.002258   84.641846
H   98.322334   68.901337    9.611327
H   24.792103   41.709309   99.940865
H   74.008102   49.495995   65.121284
H   56.460033   37.917923   24.180763
H   85.783615   90.320587   79.687622
H   12.516986   93.611015   94.737526
H   43.229450   70.822044   96.973419
H    5.891996   80.413712    2.868379
H   94.562370   45.961670   62.948811
H   81.027641   39.805145   14.106185
H   11.877769   20.619013   35.482800
H   98.735031    8.188482   51.997818
H   58.137974   70.348396   48.879967
H   18.452873   86.765450    7.149517
H   16.080359   13.313393   94.343834
H   86.415482   45.311054   46.115120
H   20.287287   86.461449   92.310982
H   52.297356   89.491318    8.438476
H   54.514828   25.391285   50.195396
H   26.707434   64.266495   14.982067
H   96.288216   30.907513   80.270943
H   47.571205   36.908485   90.440765
H   56.130783   91.182220   66.506943
H   95.009193   53.793777   63.688290
H   62.792526   52.959015    1.142420
H   14.080816   55.921135   93.034424
H   90.853889   14.326410   12.593243
H   33.347549   14.425431   59.075314
H   37.643036   13.970997   55.831787
H   39.271618   87.961739   57.703911
H   61.341740   34.528385   14.555728
H   23.316240   72.332115   17.965973
H   42.023071   68.499802   64.107841
H   26.062222   80.605095   42.580132
H   59.607506   41.384678   63.777046
H   96.933044   83.971077   65.031883
H   91.712112   72.018753   26.888750
H   51.279518   71.206131   41.346191
H   79.165810   76.211945   23.357342
H   34.356575   65.657661   86.113937
H   51.184174   90.487846   47.298248
H   56.219463   60.795166   28.652527
H   43.054878    2.995576   20.525679
H   22.450781   74.556450   52.782196
H   41.414413   64.164680   94.404549
H    1.102136   39.315689   71.888931
H   93.080109   96.494240   20.700968
H   83.948593    6.173887   12.240988
H   50.258568   51.468544   38.461102
H   46.505100   63.810005    5.351194
H   85.167412   79.700035   11.013326
H   35.125275   32.601875   54.077461
H   34.702637    4.750309   99.611023
H   22.029600   51.410675   89.933311
H   11.921867   54.657413   99.021461
H   95.804070   72.623329   99.787231
