100
TIME:    2.629, STEP:  2629
H   39.533356   80.928673   96.739090
H   28.139885   47.285583   43.836475
H   24.944929   63.044769   92.476860
H   81.917877   24.335859   96.058167
H   71.623337   83.483459   94.422424
H   87.251839   98.359901   39.104549
H   15.184952   38.860634   96.044075
H   13.252083   16.044374   66.808861
H   89.002098   33.525848   34.600597
H    2.998060   54.131905   10.637340
H   55.711853   72.026093   86.510757
H   55.500816   55.468811    5.794337
H   76.030922    2.649102   63.826820
H   24.908394   96.972542   57.309170
H   12.478519   35.194031   24.398203
H   95.817368   81.787079   14.811480
H   12.698686   55.857460   12.716592
H   57.325340   66.852348    8.401501
H   86.212898   88.642578    1.869700
H   21.689552   49.983662   95.327217
H    8.268036   94.491608   85.887283
H   14.425140   47.574020   95.394669
H   50.643089   73.240730   57.131775
H   74.778915   68.212433   11.820748
H   35.555046   77.669342   55.958870
H   34.604321   49.272297   42.755325
H   35.377007   33.192234   52.136044
H   10.714901   79.152550   53.674030
H   68.335785   87.615639   32.897209
H    1.801582   25.772537   92.386925
H   19.522211   57.802273    1.380836
H   31.753731   79.874672   55.884361
H   55.541653   76.132286   34.638039
H   89.182289   32.790512   60.995300
H   15.421412   60.187897   84.816261
H    1.135284   91.006218   11.602551
H   31.954643    8.255682   15.620063
H   55.328239   10.835880    7.963448
H   34.102043   24.134741   89.542877
H   15.571367   66.065971   44.878735
H   55.576786   46.389874    4.283562
H   95.341606   29.848915   26.313513
H   33.885952   79.265274   91.369072
H   11.479979   56.834259   37.783745
H   28.609663   28.164387   81.081398
H   44.169865   13.060932   93.844490
H   62.272045   67.811615   50.694855
H   56.379818   22.451338   31.245522
H   41.877159   14.716175   39.602341
H   81.022148   70.761070   99.789948
H   43.344044   15.830515   81.136597
H   32.896397   19.787258    1.471830
H   63.415642   37.252563   50.182045
H   15.813023   64.316551   47.826508
H   31.465645   88.977280   22.713636
H   96.855698    9.768997    3.129440
H   62.917423   13.688498    6.027197
H   30.295746   28.611252   45.839310
H   97.621300   49.850735    9.653074
H   85.531921   29.861677   88.835579
H   25.540236   56.309803    9.418963
H    5.605652    3.472424   76.401474
H   52.556904   27.875525   53.198654
H   23.567682   56.095604   55.765896
H   36.671421   50.870724   40.394867
H   39.841499   11.577492    1.632296
H   76.638771   39.253902   93.989761
H   98.762596   67.892456   91.884003
H   87.930931   60.883156   95.345497
H   83.647522   80.374580   96.197205
H   38.550591   16.522348   30.613071
H   57.193260   64.273697   49.105324
H   35.576431   88.265709   94.337639
H   72.335472   83.011505   46.959267
H   88.926292   32.385487    0.693493
H   87.808693   76.067741   19.031578
H    5.650731   98.682266   37.545063
H   55.495525   78.817421   59.631321
H   87.582993   45.796528   47.012016
H   70.594215   65.774673   94.430588
H   62.329685   56.479870   37.117435
H   38.580849   61.396927   66.942116
H   84.137619   51.138885   80.299194
H   31.021847   37.128510   23.299683
H   24.319145   84.438950   92.900459
H   90.783447    5.621132   24.349102
H   42.739693   12.203217   48.904221
H   98.276871   94.810471   68.404518
H   10.241510   47.793343    6.691261
H   33.899364    1.109291   18.198715
H   31.612152   15.390653   88.981400
H   72.810455   93.223930   83.617073
H   53.965534    6.408054   22.301960
H    1.329922   72.702065    4.079090
H   11.136345   14.239319   76.498680
H   11.066253   91.915474   31.657852
H   53.924545   18.553234   85.993202
H   16.517653   38.622040   13.970057
H   83.474052   48.182880   24.831497
H    2.511082   11.175224   44.475616
