100
TIME:    3.925, STEP:  3925
H   51.890289   62.078827   95.552567
H   92.088509   17.551268   25.587477
H   47.221909   56.284065   77.269585
H   82.135406   70.940056   25.020021
H   60.015182   87.363564   59.281555
H   67.160042   96.955849   67.452751
H   47.260441   26.372211   97.393044
H   11.389038   28.164417   47.813999
H   57.143944    8.920666   53.023045
H   67.580757   72.740547   61.390877
H   35.161087   24.173191   61.672726
H    6.032677   20.430368   13.543386
H   93.593445   24.239609   35.016075
H   60.737862   92.977913   55.935291
H   28.244450   19.430546   62.102978
H   43.709213   68.434196    7.231636
H    8.481977   41.578487   30.696585
H   85.013268    3.827783   63.470768
H    6.401637   43.012772   70.145218
H   86.772362   22.464491   83.564903
H   31.361649   65.472107   50.710602
H   38.673920   49.294479   85.028290
H   33.339622   62.700447   20.051323
H   54.366478   83.755890   15.567963
H   89.204132   74.887848   65.526833
H   28.659037   10.658456   21.280592
H   23.621340   79.320328   77.848610
H    1.362329   39.645432   96.509911
H   96.515717    5.198953   71.635506
H   51.494812   93.695641   95.415253
H   70.530357   74.017296   98.845436
H   13.583980   44.066948   35.907127
H   46.829540   81.310860   51.391953
H   43.942520   14.019825    6.397729
H   83.205872   62.220207   63.731873
H   13.826109   92.814667    7.138522
H   56.256920   60.793930   17.739798
H    1.765938   87.121056   99.418785
H   79.397736   95.899712   63.950569
H   93.502449   44.738144   46.845501
H   67.005829   90.860809   34.816998
H   78.864487   88.014145   87.201477
H   45.049160   87.037003   84.980431
H   28.720732   78.550903   64.499512
H   16.191339   77.029938   91.983215
H   27.449772   37.780170   99.104744
H   72.398727   38.293236   63.143463
H   56.449032   35.796188   11.434639
H   79.761032    7.381852   87.904236
H    8.196506   90.477135    9.145542
H   43.245167   90.709770   94.801392
H   95.881012   99.528183   16.392406
H   90.290611   44.767212   74.912392
H   85.799187   43.166916    5.016516
H   28.279465    2.565400   33.730404
H   98.477280    8.405371   59.010544
H   45.079090   76.292397   29.287710
H   33.792229    6.219583   12.455818
H   99.834129    4.609097   10.158340
H    0.010295   29.476629   51.974251
H    7.292318   96.042259    8.372673
H   59.608696   91.408737   17.759644
H   40.528667   39.448540   64.321434
H   12.561750   63.145531   20.575588
H   88.112465   47.361118   61.087315
H   60.226173   47.149391   78.260437
H   72.658310   84.059479   56.561504
H    9.239216   42.012650   53.840298
H   52.524902   67.760864   14.062624
H    9.907286   45.559212   93.468201
H   97.395119   28.343170   15.064671
H   50.332428   21.262222   43.992138
H   51.074402   24.160038   61.114120
H   43.807415    0.997125   69.943962
H   51.410450   34.234486   98.939125
H   18.445681   59.129631   31.827187
H   23.319166   86.353806   60.464741
H   16.383968   94.074181   31.202921
H   49.729652   41.989765   61.477715
H    7.035780   95.189552   82.779015
H   87.682388   69.887589   14.577144
H   35.822289   69.860794   58.571533
H   66.133644   72.773163    3.736840
H   20.184305   48.029976    4.929450
H   61.214478    3.372607   67.267700
H   60.961147   53.227646   14.347276
H   29.296606   17.973457   10.702621
H   19.135374   91.049400   54.924362
H   37.139511   75.634621   96.089363
H   19.315569   47.791626   64.524155
H   84.649750   85.370064   16.350626
H   68.706680   90.683159    8.315386
H   37.053520   45.287224   22.530802
H   26.593800   51.313774   91.461281
H   88.728783   98.151268    6.279893
H   18.110535   40.736763   64.717567
H   51.054138   92.928474   11.458542
H   21.273634   49.656708   93.230644
H   21.735283   53.769428   16.276573
H   83.007652   77.910378   19.632044
