100
TIME:    7.166, STEP:  7166
H   32.714432   64.864296   92.585342
H    2.569768   93.178261   29.944077
H    2.947674   89.455086   39.223560
H   82.679398   37.412018   47.370487
H   30.985407   47.143841   71.405701
H   16.891872   93.444633   88.419205
H   77.399277   45.220898   50.843685
H   56.652824    8.552596   50.236107
H   77.473915   97.311600   49.013294
H   79.030678   19.278139   88.295631
H   33.691162   54.582081   49.483719
H   82.334946   82.885284   82.845619
H   86.797615   28.236393   12.969494
H    0.264233   82.988258    2.574896
H   67.644234   29.930382    6.290657
H   13.393955   84.964355   38.200684
H   47.860054   55.944897   25.737604
H   54.309238   46.141388   51.114693
H   56.875347   78.976364   40.894001
H   99.455185   53.632671    4.227204
H   39.036118   42.819756   62.742535
H   49.391739   53.596954    9.027145
H   90.065773   36.341606   27.323336
H   53.233788   22.554415   74.864853
H   73.287178   17.860016   89.462440
H   13.818996   14.847839   16.530039
H   44.146931   44.595390   42.153515
H   27.895763   90.924370    3.641178
H   66.988609   99.247902   18.431364
H   75.769608   13.481487   53.064842
H   98.081581   64.643707   42.427895
H   18.222713   54.520199   35.871529
H   75.121101   44.183342   43.366829
H   80.882088   17.001450   69.859192
H    2.613652   17.103249   61.038246
H   95.566124   46.700897   96.896919
H   67.110794   42.101685   73.118134
H   67.806618   27.810940   28.126198
H   42.593845   25.280954   49.873489
H   88.236275   41.326488    1.840039
H   45.505905    2.067799   11.172722
H   96.302391   69.704620   45.796566
H   72.957855    6.474621   19.082050
H   21.770779   32.923607   81.388786
H   35.058571   49.157093   69.324043
H   85.624840   99.597336   12.273909
H   97.719040   14.549382   94.250542
H   56.624996   69.177460   11.969099
H   74.497932   38.961575   58.621239
H   76.191162   39.804539   82.485725
H   43.009541   77.812332   28.966339
H   53.396374   98.786697    3.633412
H   57.518192   63.559631   86.678810
H   10.745964   90.282547   48.031631
H   70.227280   86.598930   61.300861
H    2.521003    4.995787   48.679245
H   50.544254   82.774391   37.533760
H   92.460861    0.146745   28.976465
H   55.443321   41.555477   61.351112
H   86.136772   78.591064   59.792503
H   11.737104   45.318878   55.677284
H   44.582588   61.241959   71.116608
H   60.561481   18.287968   42.076324
H   35.115864   80.799316   32.582783
H   16.752838   88.507812   62.907398
H   61.128723   86.030327   69.893692
H   12.626749   96.110382   13.036448
H   85.361015   27.369009    8.778838
H   14.053587   34.883270   10.792819
H   75.565636    8.570096   86.643585
H   94.478813    7.827147   76.189766
H   83.160500   13.665412   81.311958
H   39.755020   63.851292   78.013733
H   72.454735   95.883667   77.374390
H    7.665287   38.866734   44.632572
H   95.064217   66.847557   13.748929
H   17.608486    5.564354   17.831354
H   68.652039   82.153542   10.190068
H    5.150136   32.469921   97.630119
H   48.097336   18.653522    3.563942
H   51.101112    3.417916    8.284665
H   79.027138   90.943283   87.496681
H   71.141716   26.958899   12.396313
H   43.158657   25.369453    8.914360
H    3.404890    0.645889   53.089012
H   86.365036   72.274994   39.412094
H   45.755726   82.325890   65.245888
H   71.278008   31.643049   21.277618
H    4.397196   95.181297   69.582161
H   32.767826   14.446301   80.383362
H   17.284992   60.373566   84.794601
H    8.510332   34.430618   70.064323
H   44.807835   42.535488   73.162361
H   39.832664   47.925743    9.991284
H   32.697701    7.842310   80.753754
H   85.803787   12.754663   97.315498
H   93.799278   78.921844   25.066036
H   24.445284   41.032833   35.024590
H   67.341362   67.746727   44.810162
H   84.318932   94.743759    7.416268
