100
TIME:    6.525, STEP:  6525
H   76.063309   23.646673   93.172195
H   20.270885   58.445560   89.527565
H   91.925766   43.338219   46.749950
H   82.571808   63.820404   82.505737
H   36.727219   95.764954   88.786331
H   26.834141   94.139076   24.938530
H   10.995559    1.935908    0.716581
H    7.034164   53.096577    9.089396
H   93.230919   58.941254   89.361259
H   96.538460   10.073540   63.197880
H   93.315430   28.789892   11.228828
H    6.798264   50.755085   28.472000
H   27.693008   67.010872   76.664726
H   32.001335   84.963997   53.796360
H   59.858650   87.187675   37.115147
H   39.168350   41.028725   91.408691
H   99.405312   13.549584   67.384834
H   40.601330   77.332626   73.334023
H   46.893955   52.086548    7.125483
H   16.723495   67.243935   60.584953
H   77.073975    6.632334   80.142372
H   87.938446   52.746017   63.614258
H   98.624046   41.554817   45.663116
H   12.791023   14.886202   22.469885
H   96.213570   68.695709   84.728493
H   16.801691   33.764214   76.834984
H   99.420464   71.242081   29.433477
H   81.980972   61.004646   82.455154
H   53.050850   41.090771   48.731445
H   51.190250   29.346275    2.107813
H   72.856682    7.165412   93.141777
H   77.749786   72.230759   95.212151
H   29.968964   91.082680   85.620483
H   53.798820   75.745438   96.864212
H   18.567093   65.635994   22.036974
H   39.844433   96.494377   98.911781
H    5.631781   65.575806   22.609655
H   94.303032   39.543110   82.892540
H   69.651642   39.246880   11.991472
H   48.611004    1.334141   51.408489
H   89.314484   80.071007   96.071877
H   50.322556   67.190933   13.073205
H   67.441437    2.629402   72.780937
H   62.698887   22.164633   18.715899
H   90.660347   74.447586   14.472064
H   93.899467   87.371231    9.669748
H   92.711227   79.689407   88.098366
H   56.587887   62.575363   72.307953
H   55.759911   92.049904   84.189499
H   62.733128   30.047617   27.303556
H   43.053555   39.697189   22.210194
H   22.238892   58.268906   45.710640
H   44.221081   59.842896   23.906450
H   25.588455    0.738584   19.746376
H   21.264858   30.424461   55.848019
H    1.722639    5.670056   70.500397
H    9.909387    1.270106   76.569206
H   40.190338   60.681847   45.487045
H    4.890555   14.467389   10.558924
H   28.436272   29.321308   78.024071
H   71.302574   75.127945    5.656359
H   67.332924   67.208298    0.116945
H   17.042280   62.028847   86.031616
H   91.099655   77.307541   49.987865
H   91.310959   39.703320    3.213485
H    0.506530   17.895836   31.992765
H   64.055557   73.946899   82.088821
H   29.639519   90.708534   78.135330
H   82.107491   80.941452   50.996983
H   62.577156   76.331474   87.993347
H   14.833921   51.440338   83.877541
H   35.951160   34.973068   34.351532
H   81.548737   95.554260   94.445618
H   86.568550   36.452198   15.460283
H   76.766594   37.943897   96.036880
H   79.913628   25.763664   56.878708
H   59.392178   61.046391    6.463439
H   38.536694   24.066122   74.791893
H   74.409492   34.352741   90.480293
H   79.533096   53.572212   58.786583
H   38.556824   96.785782   69.973068
H   30.928061   86.786407   41.122898
H   30.595924   16.239050   51.352043
H   99.059669   70.517479   67.458275
H   34.616402   40.743065   15.226685
H    1.114936   48.729233   94.898880
H    2.944731   28.932137   34.680626
H   60.968956   82.937073   27.923729
H   91.094589   30.870142   74.824715
H   89.440964   40.820454   57.468147
H   91.052513   25.763470   71.257858
H   61.082821   86.221954   57.850464
H    3.718643   23.301380   23.592844
H   77.882668    9.037169   66.769730
H   43.779442   65.260880   66.023743
H   32.859863   38.065887   30.424377
H   44.678276   42.135941   61.930649
H   25.682566    9.316571   47.891342
H   97.877281   64.978737   98.499184
H   44.503345   11.193253   69.167305
