100
TIME:    9.030, STEP:  9030
H    6.660338   93.927742   90.878799
H   51.089371   94.185745   47.475895
H   34.988300   23.558025   17.341911
H   82.992264   60.614616   45.198013
H   14.282618   96.551575   20.865154
H   87.988037   91.425224   73.017700
H   79.707115   71.087761   96.610924
H   10.146103   69.810837   79.089455
H   31.653236   18.094570   31.680475
H   28.118269   46.042423   61.281746
H   60.306427   29.582748   69.933372
H   11.189987   76.317909   50.163521
H   67.936508   15.414631   27.731182
H    7.970254   77.242897   44.427639
H   90.284370   63.428719   16.648659
H   38.447144   21.932274   83.471741
H   97.968025   79.234673   95.424873
H   94.165665   55.439110   86.502029
H   85.911530   57.174694   39.096653
H   49.230122   14.051870   31.136957
H   28.423714   57.253052   12.154942
H   28.095240   56.071442   50.290359
H   65.178688   21.186892   73.991287
H   80.041077   44.853241   36.427692
H    6.620440   70.037064    3.227031
H    5.028996   59.899094   41.118870
H   83.412254   67.112503   79.137009
H   70.615723   77.929581   65.258751
H    7.519416   68.364250   30.318336
H   47.242882   67.346909    1.248152
H   71.444527   31.793613   94.954239
H   35.916920    3.024540   63.311745
H    6.417282    7.804948   11.290669
H   59.641220   46.177032   91.332527
H   56.224007   75.972298   74.446014
H   57.599842   92.700348   91.037788
H   45.893257   73.836678   19.993856
H   90.765770   93.698494   59.662003
H   63.915073   84.669640   69.238358
H   12.668734   66.825844   48.496681
H   18.114927   66.021088   55.087368
H   39.214752   77.014313   40.958210
H   88.999359   17.656559   53.718304
H    2.749493   64.217690   63.638645
H   73.369537   75.623985   28.833269
H   61.564026   35.144238   19.846693
H   12.289796   15.920404   12.148006
H   56.738766   88.376068   27.302372
H   28.986221   84.585670   84.263977
H   15.323698   68.177910   52.155865
H   42.881550   97.854851   48.618927
H   43.987408   25.821671   81.272652
H   96.173775   74.367737   78.425003
H   67.573975   59.875710   30.284397
H   21.812996   49.951355   77.145691
H    4.842613    3.035040   85.224274
H   68.713486   28.989845   14.815717
H   53.663269   24.115290   80.962547
H    2.455425   20.318499   18.252028
H   63.130512   21.863705    6.775902
H   29.320311   58.632839   10.346916
H   78.425560   43.892105   86.776207
H   87.107513   91.091698   14.256256
H   63.115139   90.953247   81.975479
H   90.739090   39.632893   36.493626
H   46.621651   93.365654   80.108437
H   63.074722   60.550320    3.029854
H   56.601913   33.973396   97.888824
H    6.954879    0.948129   93.886292
H   13.419600    2.199101   82.691132
H   35.283314   80.998329   53.834053
H   29.668966   51.768944   17.941532
H   18.219040   71.648613   30.220348
H   31.423672   77.910561   66.621681
H   97.455963   41.611423   85.962387
H   39.133049   86.311394   88.324905
H   86.899246   44.231411   50.892578
H   56.219120   60.277122   13.142180
H   94.535561   26.994762   18.431406
H   56.685509   17.112291   42.978600
H   87.592690   22.701853   19.694206
H   18.900333    3.034414   31.554491
H   89.041466   58.131748   89.914330
H   71.397728   84.875710   38.666111
H   12.645248   84.039536   72.396454
H   43.467113   40.740952   68.853790
H   70.248131   46.797600   54.128456
H    1.256184   82.485390    1.950923
H   43.083744   91.396721   54.337044
H   67.966415   37.758087   47.016594
H   93.567467   61.022564   24.159203
H   46.427456   74.621826    5.586810
H   64.293915   98.458672   17.308344
H   19.980078   61.012562   35.676556
H    0.465917   40.877590   23.585390
H   39.762589   39.146545    1.037484
H   45.843163   85.892052   17.864624
H   20.847322   33.265148   97.601646
H   78.544731   75.795921   88.680046
H    0.100473   46.908756   27.851368
