100
TIME:    4.052, STEP:  4052
H   43.301666   50.432251   95.436295
H   88.569588   24.435259   33.597031
H   49.404915   65.421104   75.779366
H   82.156723   65.707817   18.058722
H   58.877655   97.543175   55.837967
H   65.191170   96.818260   80.029503
H   40.604839   34.948238    7.324677
H    1.407087   39.151150   36.152889
H   54.022041   96.710007   45.028378
H   64.110039   74.564079   66.363953
H   23.347855   29.283344   49.439945
H    1.185135   26.796259    4.503678
H   85.500687   16.557686   22.395096
H   54.449486   92.586464   65.600235
H   29.789413    8.086592   55.997730
H   38.602936   57.326347   96.689392
H   98.269295   49.978168   42.257896
H   87.726280   97.651726   59.066967
H    8.379616   48.340935   76.836670
H   83.350090   19.767466   92.211662
H   23.825287   52.828609   47.264107
H   50.849533   49.463074   74.213058
H   31.643990   61.667564   16.417339
H   42.566811   85.279053    6.135617
H   84.661774   64.816757   66.464760
H   28.076223    6.874494    9.376900
H   12.669973   74.041580   80.367836
H   90.646027   45.573364    0.707449
H   99.277176   16.721249   65.631996
H   56.364670   90.552422    5.511319
H   75.528114   85.406136   88.797600
H   21.602797   40.558441   24.150093
H   55.775700   72.018791   62.833115
H   49.308472    2.381193    1.047672
H   80.049088   52.620018   71.465866
H   24.869524    2.790951    6.700201
H   68.437729   56.143051   27.746939
H   96.516518   84.797554    8.380634
H   74.037598   93.132439   51.643181
H   81.540001   32.848366   56.838108
H   58.326126   95.219070   37.809063
H   67.450455   93.713409   93.168167
H   46.143085   87.798584   94.154289
H   20.611246   80.678680   76.917358
H    5.175055   72.018616    2.850894
H   25.811306   40.202503   99.620216
H   73.390915   45.199791   64.363060
H   56.455814   37.104248   19.292686
H   83.473984   96.863739   82.838654
H   10.860103   92.409187    0.263252
H   43.235477   78.448891   96.140457
H    2.052958   87.744019    8.054737
H   92.924171   45.503601   67.536873
H   82.857506   41.094368   10.620341
H   18.167679   13.695543   34.810764
H   98.636185    8.271658   54.687164
H   53.129955   72.627892   41.366432
H   24.335442   94.225945    9.184458
H    9.850019    9.975367    0.408450
H   91.629028   39.238628   48.362068
H   15.303699   90.135643   98.470802
H   55.101219   90.226639   12.013070
H   49.151203   30.782333   55.612663
H   21.282633   63.836380   17.127155
H   93.152855   37.217358   72.914116
H   52.424324   40.835823   85.769669
H   62.469009   88.450684   62.692913
H    0.466254   49.275772   59.911633
H   58.854942   58.635452    6.097267
H   12.480288   51.947388   93.200775
H   93.362419   19.701740   13.541023
H   39.861168   17.047363   53.290989
H   42.793900   17.878445   57.857536
H   41.011074   92.960716   62.397911
H   57.533138   34.415676    8.566779
H   21.448404   67.269249   23.281681
H   34.850075   75.346725   62.710728
H   22.350658   85.770424   38.217026
H   55.819397   41.616726   62.895264
H    0.807357   88.273308   71.837822
H   90.166733   71.201462   22.167326
H   45.351746   70.690201   47.952026
H   74.168037   74.893188   15.832958
H   28.921659   58.897530   93.329727
H   55.030746   95.428963   54.956436
H   58.037876   57.893059   23.166550
H   37.778648    8.739525   16.758665
H   21.179338   80.881416   53.603706
H   39.775009   68.563347   95.050667
H    8.086917   42.566170   69.064575
H   89.847107   92.228172   19.032633
H   78.103394    0.232982   10.735538
H   45.194496   49.098038   32.351910
H   38.869213   59.017761    0.024712
H   86.533180   86.775993    9.198077
H   28.600204   35.721565   58.157890
H   40.973358    0.216784    4.154482
H   21.739691   50.738037   91.197823
H   15.685265   54.316875    5.638657
H   90.896706   74.650887    7.397639
