100
TIME:    0.939, STEP:   939
H   53.821449   35.910164   98.286331
H   75.150230   55.657406   37.232021
H   95.897766   41.459072   12.314468
H   81.634216   93.962425   88.693474
H   86.760513   48.022514   40.244484
H   13.455502    0.191679   71.738548
H    3.758250   24.743116   63.883793
H   46.082748   69.836563   21.977852
H   30.545586   96.012268   40.980507
H   49.179161   29.866573   44.461273
H   12.911530    4.025318   49.299850
H   20.000645   70.757957   26.089651
H   83.532272    4.896500   31.800215
H    8.588028    2.182115   28.698376
H   91.922569   86.149353    5.634695
H   63.769089   29.605099   55.095200
H   48.572334   44.094559   58.848839
H   21.210152   49.037155   66.992966
H   59.886024   17.744730   12.833628
H   67.231514   85.844818   80.248512
H    8.554947   62.737907   31.758503
H   52.385303   45.339310   39.301563
H   73.207024   86.985390    5.483433
H   31.798279   47.943577   37.336555
H   96.000603   11.704739   43.490685
H   42.353420   99.631226    1.161069
H   81.108139    3.443072   18.599592
H   53.310257    0.268545   97.810959
H   31.588806   34.285069   12.785549
H   36.998074   67.599625   58.036282
H   53.039341    6.248054   35.107079
H   25.046057   26.569061   12.336113
H   36.499538   99.781075   82.389488
H   17.777107   87.669044   32.191872
H   57.431511   87.938850   81.906937
H   54.197510   58.248180   17.413366
H   69.860588   70.147804   82.454903
H   25.180656   41.767811   88.704277
H    8.505610   60.463112   52.128815
H   74.749535   24.276945   11.912256
H   71.070251   88.401085   64.466965
H   47.229210   54.002045   46.915867
H   19.328993   69.130844   69.297127
H   19.397787   28.507647   72.543831
H   75.203560   94.843552   36.460999
H   65.958900   80.856255   87.000587
H   45.995045   76.395264   35.646919
H   56.289562    5.051321   26.677900
H   92.479301   54.680412    7.016112
H   45.583622   45.041576   17.990387
H   43.472980   78.988991   63.317539
H   50.766182   76.607315   12.417572
H   28.357737   27.453369   48.334801
H   54.945332   91.883232   73.252213
H   66.007172   40.822659    8.374153
H   94.741135   11.545101   60.661026
H   55.779053   62.452538   45.294212
H   56.138611   88.210487   89.368362
H   64.332634   78.443344   39.395870
H   97.055191   99.961472   36.902184
H   18.933455   34.903320   41.183510
H   65.584198   19.205276   52.869385
H   37.924652   43.121117   69.139015
H    7.518268   46.902412    1.644377
H   69.594398   85.847862   83.008720
H   43.660988   95.592690    1.706819
H   12.230742   80.825562   12.397022
H   15.502816   71.239426   11.092231
H    3.700595   82.315781    1.338979
H   49.407410   95.371727   99.755859
H   92.214073   31.511988   50.885593
H   96.542679   20.362114   25.370394
H   45.767578   71.858437   37.671535
H    9.523381   89.957809   47.401039
H    7.445590   29.979784   72.580376
H   47.858875   67.755028   32.747181
H   52.210613   45.160027    7.649363
H   76.096252   89.321922   66.299103
H    6.560067   50.751804   28.158642
H   53.475235   57.815620   40.025421
H   29.257404   38.996044   36.109936
H   11.776638   50.359940    8.258818
H   77.209389   22.929594   19.334843
H   14.763933   92.513039   77.662788
H    6.607543   90.148666   56.726921
H   29.680286   43.546101    6.990253
H   29.868414   35.079979   68.318222
H   71.071213   30.115288   85.980431
H   75.169380   41.889717   20.517712
H   83.316757   70.646118   57.781582
H   62.450291   24.135481   53.291698
H   47.763447   66.127846   51.413712
H   45.531593   55.764961   91.558189
H   37.985901   70.191200   90.130592
H   40.358021   65.620697   37.662926
H   71.479126   58.650810   18.948601
H   88.069199   21.567503   83.186172
H   10.312840   24.232697   41.012154
H   63.980247   40.897953   66.394753
H   97.556503   54.585499    7.246605
