100
TIME:    6.405, STEP:  6405
H   84.178543   34.650963   93.282059
H   23.584637   51.942570   81.961647
H   89.862167   34.704796   48.158947
H   82.551666   68.764252   89.082886
H   37.802048   86.146423   92.040115
H   28.695408   94.269081   13.054527
H   17.284592   93.833305   91.332420
H   16.465927   42.715412   20.107624
H   96.180748   70.478729   96.914360
H   99.816048    8.350288   58.499393
H    4.477524   23.961401   22.787819
H   11.378647   44.740070   37.013680
H   35.350479   74.267342   88.588554
H   37.943108   85.333870   44.663975
H   58.401131   97.906670   42.885715
H   43.993179   51.524330    1.369674
H    9.055110    5.612649   56.460762
H   38.035107   83.171860   77.494179
H   45.025364   47.052063    0.803680
H   19.956223   69.792763   52.414787
H   84.194946   18.579037   83.399818
H   76.433929   52.586716   73.833374
H    0.226242   42.530769   49.096344
H   23.940773   13.450655   31.382086
H    0.505531   78.211700   83.842262
H   17.348719   37.311882   88.119774
H    9.768204   76.229874   27.052191
H   92.106705   55.403450   78.489090
H   50.441597   30.203396   54.404053
H   46.588810   32.316246   92.568100
H   68.134392   96.404701    2.635776
H   70.172882   75.546799    6.321101
H   21.516357   99.862587   74.809937
H   48.728630   86.742752    1.919611
H   21.553543   74.721687   14.735682
H   29.413027   87.095573   99.288979
H   94.122047   69.970337   13.154159
H   99.263359   41.739460   74.423912
H   74.716339   41.861626   23.620043
H   59.913189   12.568346   41.966656
H   97.515778   75.952965   93.244728
H   60.435471   66.720352    6.946974
H   66.408722    1.909515   64.112724
H   70.361694   20.150473    6.983125
H    1.069842   79.182693    4.203052
H   95.448540   85.082413    9.182230
H   91.773727   73.163528   86.946632
H   56.581478   61.339401   64.883026
H   52.252525    1.988689   88.975876
H   60.214512   28.220682   35.694107
H   43.061794   51.282272   20.945393
H   16.405609   69.404022   53.587837
H   41.731762   59.147095   30.875902
H   28.367081    2.696670   14.451423
H   30.819759   19.908257   54.827206
H    1.573179    5.796285   74.585480
H    2.302042    4.732814   65.156242
H   49.125885   72.014244   48.577866
H   95.426193    9.396512   19.771095
H   36.354668   20.097370   81.437157
H   63.732990   80.709000   15.012362
H   71.591957   68.325241    5.546792
H    8.895460   70.217323   94.260376
H   82.859909   76.653854   53.246227
H   86.548386   49.287975   92.038429
H    7.877926   23.861412   24.897429
H   73.683243   69.797729   76.295364
H   37.928703   83.845741   72.398636
H   76.127266   89.563889   58.523533
H   60.146431   70.296318   88.246033
H   18.644733   59.605011   85.316750
H   45.845264   38.955612   25.565552
H   89.372833    1.490303   97.521790
H   89.210762   44.046497   22.589952
H   70.980461   37.772694   86.940201
H   77.077324   18.072777   64.952850
H   48.493740   71.432396    4.335182
H   32.898876   31.912649   68.165306
H   68.654488   34.705219   89.141792
H   85.418106   60.109077   69.124718
H   36.208496   95.544327   62.800831
H   21.923391   86.008209   51.161655
H   23.005287   14.232415   39.923515
H   90.803444   60.248924   78.418968
H   40.459297   48.249474   26.859360
H    3.876968   44.320969   86.565750
H   94.930183   37.657112   28.958578
H   59.039024   92.539124   29.167931
H   88.604355   37.551582   75.806160
H    0.050101   45.757893   53.178902
H   86.141624   19.283825   68.723679
H   52.204037   77.196686   55.564392
H   96.026443   19.700611   14.313060
H   66.284767    1.757107   58.678299
H   45.854027   76.009171   63.266178
H   22.948364   42.804657   36.622498
H   54.203423   35.249344   68.831894
H   25.914194    3.379002   50.300095
H    3.593762   64.460548    8.550606
H   37.050037   14.272629   80.726753
