100
TIME:    2.983, STEP:  2983
H   15.594330   48.464989   96.414993
H   18.292747   66.479858   66.166733
H   31.029844   88.513367   88.323021
H   81.977295    9.750158   76.655579
H   68.452591   11.858106   84.823761
H   81.763802   97.976387   74.162926
H   96.631935   62.765465   23.727425
H   85.428375   46.668812   34.304897
H   80.300102   99.489990   12.317331
H   93.324196   59.214821   24.500574
H   22.783630   86.270142   52.411304
H   41.988686   73.213104   80.596077
H   53.512863   81.231644   28.643295
H    7.380498   95.881416   84.247673
H   16.784954    3.573995    7.381447
H   81.584122   50.825043   85.426125
H   84.231972   79.272507   44.942608
H   64.889977   49.637413   96.128113
H   91.727943    3.492170   20.518854
H   12.153008   42.467319   19.429102
H   87.261276   59.251129   76.277817
H   48.363464   48.043961   65.248276
H   45.916679   70.361671   47.003754
H   41.888504   72.458099   85.530113
H   22.894642   49.593155   58.570549
H   32.981136   38.725651    9.575146
H    4.851002   18.476786   59.160839
H   80.844719   95.676079   65.376305
H   76.033081   19.733107   16.164297
H   15.375129   17.011124   20.528412
H   33.454456   89.547012   73.373482
H   54.105598   70.092354   23.112785
H   80.476410   50.231560   66.529152
H    4.139546    0.348697   46.081451
H    6.621459   33.428314    6.373306
H   31.915001   18.814699   10.385839
H   65.906624   95.291000   43.513973
H   40.697975    4.356838   32.943417
H   19.158485   16.422590   55.237244
H   82.227875   32.924553   72.731300
H   31.384340   58.535397   12.624158
H   63.526115   45.737755   42.944611
H   36.935162   81.388107   16.939133
H   88.874802   62.767929   72.395226
H   97.902763   14.198433   11.374137
H   39.602802   19.812946   95.281319
H   65.039352   87.062958   54.095169
H   56.398724   26.096075   53.149055
H   52.223946   85.397514   25.480452
H   88.443962   76.146477   75.028961
H   43.317036   81.653915   84.869110
H   50.100529   86.939163   78.233940
H   70.756645   39.305176   29.620968
H    7.616077   58.539673   63.447968
H    3.281802   20.006454   25.719839
H   97.298630    9.396961   91.078445
H   85.360985    3.473385   39.695641
H    3.936192   95.179764   36.721390
H   25.539787   64.807800   82.477089
H   62.170166   57.072292   78.766975
H   47.870888   39.848392   81.817429
H   93.042107    0.176776   60.385086
H   76.576942    3.728191   28.917221
H   47.877167   58.021278   46.153728
H   50.723713   22.596439   73.362831
H   18.094612   93.979164   22.562653
H   48.237099   51.491253   11.081214
H   74.309502   88.137695    8.807250
H    5.573305   35.446968   73.144875
H   90.820862   98.178291   95.451782
H   27.309273   92.436058   26.366055
H   28.005468   52.525192   75.023804
H   12.494204   70.753685   85.262932
H   64.546349   60.610611   25.919991
H    5.994792   32.890537   27.529961
H   96.175789   98.754509   95.211914
H   37.791935   68.001114   43.805531
H   72.127090   55.670544   79.180359
H    4.559662   44.756718   50.963295
H   53.233437   46.493870   63.933090
H   69.255203   60.142162   58.275547
H   65.143158   63.708817   37.341286
H    6.533312   57.048248   14.015791
H   55.375011   67.420746   90.966156
H    7.081585   62.297535   58.584023
H   82.637817   18.624161   48.931835
H   66.382545   86.464516   65.784256
H    3.974631   66.468216   64.720619
H   17.588524   28.083132    3.794985
H    2.600716   86.546341   30.853340
H   46.099274   34.505428   96.457230
H   99.002869   19.844698   90.363686
H   76.670731   17.021185   49.684410
H   35.546192   94.173470   27.947403
H    5.015134   82.530731   84.633507
H   40.305176   77.936104   13.373301
H   25.825661   38.868694   65.634529
H   17.816740   41.636139    8.305792
H   66.610222   49.708836   95.178825
H   24.496851    2.086525   10.377351
