100
TIME:    7.563, STEP:  7563
H    5.867720   28.457432   92.221878
H   91.605576   14.690984   54.977558
H    9.771997   18.016396   34.562130
H   82.746033   21.055107   25.608505
H   27.427999   78.965141   60.641098
H   10.734828   93.014534   27.735020
H   56.592022   72.028519   81.889603
H   25.449409   42.897114   13.783708
H   67.714897   59.141785   24.022575
H   68.187325   24.978472    3.840107
H   96.763199   70.556335   11.243418
H   67.184540    2.784862   54.586266
H   61.482323    4.207998   73.515999
H   80.606880   81.764595   32.787861
H   72.466194   94.468399   87.197540
H   97.430679   50.241394    5.245568
H   15.935766   82.204269   61.878078
H   62.799160   26.823257   37.354538
H   63.057270   95.629089   61.808346
H   88.757217   45.203327   31.256784
H   15.477570    3.296077   51.968845
H   87.452515   54.123978   75.218979
H   84.765251   33.112831   15.963563
H   16.345827   27.303682   45.379921
H   59.087837   86.376221   92.394386
H   11.947155    3.145802   79.170982
H    9.912596   28.091440   50.031605
H   94.398094    9.454963   16.764467
H   75.620888   35.266193   99.665825
H   90.992706    3.655077   84.625664
H   13.706445    0.245031   11.018517
H   43.289639   43.552662   99.119301
H    3.083870   15.137362   79.131721
H   97.655968   80.618935   53.133774
H   92.733360   87.044823   85.190826
H   30.076015   77.795273   95.649025
H    5.189486   27.562647    4.400212
H   51.398529   20.544682   56.140213
H   25.835110   16.632017   11.401600
H   50.842918    4.160123   33.075310
H   18.374052   15.688764   20.525480
H   62.845497   71.261459   66.063042
H   76.374420    8.856070   47.756359
H   96.421356   39.587120   20.205742
H    0.621972   33.494808    3.295990
H   80.499992    7.168357   13.886782
H    0.821099   36.140388   98.060860
H   56.649227   73.266434   36.533108
H   86.104561    6.083172   42.783279
H   84.526611   45.847134   54.728149
H   42.982281   39.485016   33.151138
H   72.690277   61.949413   77.572876
H   65.753044   65.861572   63.623055
H    1.553345   83.806824   65.550613
H   38.617996   21.389805   64.677444
H    3.015466    4.578181   35.164429
H   75.712540   71.319206   75.291649
H   62.899094   62.655388   18.749487
H   86.750786   58.332386   30.874569
H   59.937523    9.104718   48.500877
H   36.780895   26.857494   24.725266
H   30.492287   57.546738   53.153580
H   87.512749   91.197174   14.852844
H   62.378719   82.961929   21.803036
H   32.510582   56.800915   99.877785
H   36.740265   66.294212   93.367432
H   80.774628    9.835804   32.204632
H   57.937630   50.073723   27.757736
H   33.841118    6.357376   85.894501
H   83.625359   28.514498   85.802597
H   81.872658   80.815475   71.428383
H   50.472271    0.477952   10.411571
H   13.869238   44.215130   67.836731
H   63.713520   70.756165   53.785553
H   26.788057   39.451305   74.733475
H    4.448834   92.290062   87.035378
H   53.664753   71.204414   24.871962
H   87.303818   56.195324   32.115856
H   24.186956   31.303806    2.059422
H   28.628025   97.026512   69.362007
H   58.873192    7.525064   32.013077
H    8.818530   93.517822   54.282986
H   96.251045   33.598179   50.205620
H   70.470695   59.341549   72.653374
H   84.074646   75.809227   14.604852
H   77.229965   86.855972   66.980865
H   72.270454   53.460762   84.176323
H   77.662865   99.874756   17.161385
H   12.637071   73.076607   66.335213
H   97.667511   98.111954   94.576645
H   33.531849   81.811394   93.178513
H   37.884312   64.289215   77.630440
H   70.256393   54.448032    3.862979
H   78.200478   72.011314   36.760204
H   25.832920   72.282791   89.876709
H   18.594421   97.078003   76.810051
H   62.286919    1.704946    2.233359
H   23.678980   60.675053   27.054693
H   48.429100   69.461067   11.556202
H    8.979134   84.554642   69.173264
