100
TIME:    1.131, STEP:  1131
H   40.837074   18.302742   98.110550
H   69.809410   66.067757   49.343349
H   99.196594   55.272549   10.060074
H   81.666443   86.052269   78.170036
H   85.040787   63.412163   35.038429
H   10.478207   99.982796   90.752220
H   93.695122   37.708447   78.898445
H   30.991928   86.447891    4.348700
H   25.825859   77.552307   28.894270
H   43.932091   32.622841   51.980316
H   95.052170   11.750632   30.806150
H   12.672031   80.381981   12.423391
H   71.318405   93.280159   12.717027
H   99.081520    1.590166   43.310192
H   94.257530   68.998962   96.405533
H   56.049362   12.810665   39.157700
H   33.135811   56.791824   76.330284
H   25.313179   39.700241   60.336716
H   62.875771   25.799906   22.948374
H   62.044762   81.796494   93.336418
H   97.161499   43.623161   26.547321
H   70.795464   45.592728   22.952442
H   70.643547   85.423866   99.989899
H   13.959412   50.246311   23.076302
H   89.133415   96.477333   44.907188
H   41.473049   93.909546   83.164062
H   64.552475   95.462173   22.409651
H   37.110550    9.230676    4.157073
H   35.763611   51.704990    3.710023
H   44.360378   62.847672   73.299950
H   60.592075   23.466539   19.914303
H   37.169102   21.264862   94.561760
H   50.024441   85.733223   99.686363
H   25.889412   70.073341   24.103720
H   52.659050   73.425179   93.599319
H   70.890869   73.330215   16.752722
H   88.276604   63.116554   97.583809
H   17.245598   38.253651    2.253875
H   99.873795   56.364479   33.725983
H   56.665169    6.302382   27.018457
H   57.948860   94.989952   68.990402
H   29.973351   62.619720   55.936375
H   20.982801   70.282211   83.166267
H    7.137764   31.725176   91.317268
H   58.548767   87.267380   52.892151
H   63.496021   84.488869   87.764351
H   48.022388   86.751709   37.287544
H   56.299816    7.028127   38.557781
H   98.092583   38.779533   99.356949
H   49.610477   47.963940    4.562117
H   43.458332   60.452858   65.341949
H   60.097237   58.791454   99.812698
H   32.340645   28.566650   37.182945
H   50.499531   88.751396   81.724869
H   50.721718   57.655178   10.003426
H   94.981369   11.343319   54.124893
H   67.950912   56.912498   63.554955
H   41.841736   70.078651   84.423050
H   79.476189   86.555649   24.655514
H   84.384293   14.719763   31.441246
H   31.045515   25.975098   26.214272
H   58.769745   17.418167   44.181396
H   50.948578   30.028233   55.967140
H   20.702600   47.946846   96.431999
H   77.214516   70.513878    0.888638
H   31.866066   86.047768   13.058992
H   96.825882   87.464233   21.667286
H    2.239755   82.219894   20.270941
H   13.270132   68.519882   89.297829
H   53.296570    5.028459   99.351562
H   86.117393   18.447779   48.582859
H   80.710648   13.989927   39.428154
H   33.249023   62.360645   32.748196
H    5.297673   77.808395   35.989906
H   16.702343   30.252977   87.135063
H   52.398426   80.059715   19.828033
H   69.643242   28.519247   11.046701
H   85.116760   76.768211   76.901642
H   15.763651   50.189304   30.299511
H   44.059219   47.358101   23.484406
H   33.014729   40.982372   47.585522
H   26.182644   51.613846   92.203568
H   89.358803   26.133940   37.621952
H   27.972395    8.942727   60.125679
H   97.258560   78.139877   38.114616
H   25.260853   50.599323   20.323509
H   42.691658   21.120018   77.473495
H   74.162033   14.743919   83.985313
H   79.153755   31.199343   18.946667
H   66.342148   62.744987   64.645836
H   70.307716   34.502735   57.346386
H   61.969501   80.568275   55.071426
H   57.850929   61.517403    6.411863
H   56.544006   81.836708    3.076674
H   37.038685   48.422104   42.075035
H   87.337524   51.068779    9.031351
H   72.828964   32.586056   72.144180
H   11.017797   25.867462   37.940376
H   54.833763   41.725590   50.312016
H    9.480362   49.653370   88.754219
