100
TIME:    8.773, STEP:  8773
H   24.039749   17.495531   91.114090
H   58.187302   80.260468   31.270306
H   30.570719    5.069090   20.358532
H   82.949127   71.202690   59.286034
H   16.585524   75.951889   27.832695
H   91.972290   91.703651   47.565842
H   93.177498   53.733925   76.513191
H   30.345795   47.577328    2.685344
H   37.970787   42.804550   47.858639
H   35.138313   42.352283   51.219154
H   84.211945   19.242710   94.689857
H   20.999641   63.435757   68.457359
H   84.324493   30.969315   53.270172
H   20.694880   78.035042   24.869114
H   87.162849   86.385231   29.007294
H   48.780319   44.410362    4.804908
H   18.634682   62.235134   72.029152
H   88.667709   67.944801   95.411697
H   81.907669   46.392506   25.557644
H   56.153545   19.509630   13.639185
H   43.674461   82.837494   19.130350
H    3.456398   55.730270   72.176300
H   68.610008   23.276075   81.344116
H    3.919328   41.778778   55.515636
H   15.811967   90.417145    1.329900
H    6.241232   67.475449   65.304672
H    5.572962   77.794693   74.039047
H   92.301666   65.933685   56.763092
H    1.930975   45.046963   42.467033
H   37.388130   73.707596   80.817139
H   61.330441    8.748041   15.287239
H   19.689716   10.124750   87.103539
H   88.315079   26.607605   88.138077
H   48.782562   69.729614    2.159650
H   62.619987   95.430824   58.810307
H   35.259007   72.571243   91.845619
H   21.244186   83.248299   99.743553
H    1.388950   98.400383   41.526985
H   74.761986   90.269554   94.143860
H   36.875031   90.884300   28.275602
H   35.678589   57.203125   49.032558
H   60.873245   76.006485   27.838490
H   86.787628   16.114426   35.155842
H   19.158978   59.902168   38.511578
H   95.663315   85.761086    6.840275
H   64.880180   30.242702   18.802591
H   10.280513    1.943149    9.679907
H   56.723080   85.729050   11.400795
H   21.474571    5.871122   94.514801
H    9.929173   64.264244   70.125511
H   42.899197   22.667133   45.909164
H   31.497362   49.670071   98.142982
H   90.844444   72.877563   93.350266
H   73.526825   64.069733   18.944374
H   42.275917   27.428370   74.961411
H    4.522520    3.305379   93.973160
H   52.421013   36.405418   90.372673
H   72.800232   48.385826   87.582054
H   82.185249    9.458859   37.982414
H   80.090935    2.109167   14.085594
H   13.107901   70.584717   30.383976
H   87.546989   46.284225   98.403481
H   69.660721    8.628936   31.879517
H   45.466389   89.553268   88.951843
H   80.539246   60.160030   12.559933
H   62.409645    6.141698   64.912590
H   83.694016   51.666142   90.621994
H   74.354584   19.274734   85.602737
H   94.146332   19.414497   10.004631
H    8.200072   89.289749   83.236221
H   43.445934   98.484337   56.916359
H   50.831497   60.302147   99.103867
H   34.975647   84.362144   36.810444
H   37.080448   94.176979   81.892036
H   85.075760   41.232998   66.476410
H   33.056671   69.841057    5.618339
H   63.558426   66.475952   46.333824
H   44.146755   77.080788   98.947998
H   82.210258   27.749653   15.562897
H   69.289238   31.113058   65.119438
H   82.561394   20.043070    4.333283
H   99.615616    1.366057   53.054184
H   72.786812   53.833775   65.440193
H   53.716782   62.883888   62.138302
H   25.158783    0.117711   97.309799
H   49.382710   31.299992   51.007004
H   53.083683   65.483589   41.873741
H   97.123009    3.049871    4.615495
H   37.750492    5.706078   56.438972
H   90.687637   48.332436   37.830460
H   83.049980   47.146305   18.731834
H   27.412058   55.292709    0.690642
H   47.819660   90.748985   97.434143
H   95.142105   45.420643   18.348181
H    4.909743   63.898808   17.680578
H   18.535461   49.295410   14.312277
H   66.242851   71.143257   32.645729
H   21.343393   20.548775    2.761824
H   90.787682   74.686134   10.206120
H   84.136017   53.502773   52.609814
