100
TIME:    5.510, STEP:  5510
H   44.703285   16.726780   94.101456
H   48.301949    3.441460   25.528244
H   74.471161   70.315521   58.667713
H   82.401443    5.637627   38.141060
H   45.818481   14.408220   16.306698
H   42.577358   95.238701   24.419813
H   64.189339   33.399319   21.342257
H   86.811157   65.285873    2.283278
H   18.181618   56.529373   53.252899
H   24.266180   95.498802   23.454969
H   87.728256   87.949509    8.998764
H   45.540672   99.878685    0.721759
H   92.462448   28.390312   77.520439
H   82.258827   88.092506   76.553978
H   47.521217   77.852188   85.911835
H   79.978363   29.804398   75.662811
H   81.025642   46.413746   74.985382
H   18.895361   26.720695    8.521090
H   31.088562    9.503200   53.648991
H   44.066978   88.802773   91.479073
H   37.305504    7.678821    7.693840
H   90.629410   51.398590   50.050873
H   12.177043   49.809746   74.702499
H    7.099178    2.743868   97.852158
H   32.514069   49.189873   77.232460
H   21.428633   63.771576   72.281525
H   86.945557   13.432201    9.292406
H   67.623085   13.627861   48.905373
H   30.980919   49.002110   96.712250
H   12.271513   54.467278   21.417637
H   32.907951   16.148163   73.445274
H   13.661879    0.278856   89.175774
H   58.475224   65.344490   94.181267
H   10.911786   68.764122   39.622917
H   43.808212   42.406418   60.247360
H   51.612309   16.995430    2.103313
H    8.280049    2.746465   42.631695
H   36.253666   58.120571   11.267637
H   12.492373   61.363274   10.352537
H   44.212841   96.355156   71.550621
H   58.682083   45.243408   72.158913
H   36.413078   59.151031   61.659550
H   58.701694   96.541779   99.467690
H   27.511730    5.128032   19.474867
H   78.703529   14.496562   27.616362
H    6.999561   68.011642    5.546156
H   84.781540   24.490822   78.356621
H   56.533680   52.121185    9.505454
H   26.093277   76.111145   24.677353
H   41.439037   14.597075   98.288498
H   43.124241   37.688889   11.511273
H   72.908302   52.453121   12.339943
H   23.165592   53.957581   82.857262
H   49.090996   17.300865   74.957726
H    2.080119   41.475132   47.213642
H    0.458408    6.737738    5.053406
H   45.561234   30.558220   80.034248
H   15.769761   56.536263   71.630234
H   24.838934   71.580070   88.477531
H   95.416336   51.305820    6.893074
H    7.275307   22.331875   84.792900
H    3.356930   76.655777   46.045097
H   48.134808   31.291021   55.633209
H   21.400993   71.778442   77.544373
H   51.025032   20.769203    8.691142
H   62.857964   68.354668   71.977531
H   45.491180   38.857388   33.085831
H   99.752205   32.660740   29.612463
H   31.519789   53.872871   14.654254
H   42.017273   25.278748   90.130646
H   47.065758   20.500305   96.050850
H   19.642723   68.658752   60.039337
H   47.729340   45.758224   20.470924
H    8.914257    0.691687   75.768211
H   27.830950   36.495800   19.093483
H   55.920616   60.713409   25.176733
H   67.228142   48.976406   88.495369
H   90.850143   90.434990   18.735758
H   25.737827   37.334118   79.158806
H   29.307285    8.862891   46.229767
H   18.693888   86.285141    9.309100
H   54.751595   80.204010   26.029528
H   66.395958   99.266052   54.688938
H   29.229460   83.661545   60.162708
H   84.037560    4.230287   13.619593
H   24.477802   11.444800   24.414490
H   35.155174    2.730934   86.281525
H   44.644951   64.158997   38.447601
H   70.031357   87.384575   83.126106
H   79.181000   82.579514   21.187124
H   49.514580   70.954529   49.822918
H   85.983101    9.884192   38.514107
H   38.654999   92.846748   45.101337
H   79.787788   47.458447   98.330055
H   61.326973   56.178219   42.699314
H   49.025009   78.147980   82.850143
H   25.244307   83.888405   20.304214
H   27.090170   63.152039   67.860390
H   46.229309   60.601742   83.516823
H   81.458038   37.238865   66.945786
