100
TIME:    4.231, STEP:  4231
H   31.196487   34.016998   95.272415
H   83.625893   34.135551   44.884224
H   52.481750   78.299294   73.678978
H   82.186768   58.333244    8.246856
H   57.274368   11.890811   50.984406
H   62.415363   96.624336   97.755791
H   31.224052   47.035709   21.322718
H   87.338036   54.636387   19.717152
H   49.621880   79.499939   33.760303
H   59.218239   77.134254   73.372528
H    6.697708   36.485844   32.198467
H   94.353859   35.768654   91.762260
H   74.078293    5.732769    4.608686
H   45.586342   92.034737   79.221344
H   31.966961   92.097687   47.392696
H   31.405842   41.670403   81.830994
H   83.875221   61.817089   58.552971
H   91.550133   88.946999   52.860035
H   11.167614   55.850708   86.267929
H   78.526573   15.966146    4.398772
H   13.203171   35.008091   42.406448
H   68.010437   49.700699   58.969543
H   29.254082   60.211769   11.295739
H   25.935783   87.425873   92.841736
H   78.259552   50.620781   67.786720
H   27.259035    1.574485   92.554619
H   97.234688   66.601456   83.918556
H   75.541809   53.928482    6.624520
H    3.169523   32.961056   57.170357
H   63.228485   86.122215   19.740860
H   82.572197    1.458033   74.635689
H   32.905010   35.613380    7.579160
H   68.384377   58.922096   78.958847
H   56.871506   85.976898   93.506569
H   75.599762   39.089043   82.366577
H   40.430943   16.819309    6.126650
H   85.606827   49.587875   41.851490
H   89.117363   81.522697   21.011845
H   66.482758   89.232109   34.296547
H   64.679543   16.090981   70.921509
H   46.092529    1.361547   42.026226
H   51.362961    1.746484    1.577830
H   47.684917   88.871994    7.083908
H    9.181341   83.677673   94.419678
H   89.647713   64.955414   18.168837
H   23.501972   43.616657    0.347286
H   74.789352   54.934227   66.081062
H   56.465374   38.947891   30.368202
H   88.707199   82.038116   75.698975
H   14.614306   95.132317   87.742897
H   43.221821   61.167809   98.027802
H   10.751539   71.134842   96.303741
H   96.636040   46.541504   57.140553
H   78.711357   38.173218   18.518646
H    3.915875   29.382898   36.333477
H   98.860153    8.083197   48.593582
H   64.477295   67.462959   58.390770
H   11.006713   77.321785    4.573643
H   23.966864   17.538811   86.667137
H   79.816055   52.997669   43.270882
H   26.595652   81.810570   84.513741
H   48.748161   88.560532    3.913587
H   61.304226   18.567173   43.338097
H   33.574356   64.811234   12.266766
H    0.257054   22.920681   89.583382
H   41.428017   31.937172   96.353546
H   48.107712   94.639862   71.334824
H   88.101540   59.512772   68.468864
H   67.776230   45.773651   94.870941
H   16.106802   60.951195   92.823853
H   87.678535    7.522326   11.393520
H   25.102142   11.106454   66.396996
H   31.122904    9.024860   53.267548
H   37.069775   81.633919   51.762138
H   66.163094   34.671055   22.136675
H   25.680590   78.740807   11.237364
H   51.102814   59.832439   65.876335
H   30.760403   74.066704   48.103050
H   64.402641   41.090946   64.892616
H   92.028870   78.525215   56.416771
H   93.668289   73.053299   32.865292
H   58.783028   71.859207   32.984375
H   85.492104   77.881256   32.881878
H   41.236000   74.214790   76.980026
H   46.315094   84.233269   37.604340
H   53.917675   64.468620   35.596802
H   49.733650   95.724747   25.294050
H   24.060202   66.550163   51.742310
H   43.489609   58.596748   93.586678
H   92.261124   35.201157   75.464066
H   97.172516    1.894175   22.812784
H   91.347580   13.693991   14.146536
H   56.668785   54.469185   46.194256
H   56.170780   69.875397   12.093634
H   83.438591   70.743126   13.311109
H   43.384857   28.653225   48.912361
H   26.765266   10.488950   93.859985
H   22.396574   52.262115   88.332664
H    7.158091   55.088474   90.645912
H    2.015709   70.056801   90.154358
