100
TIME:    6.772, STEP:  6772
H   59.359451    0.996161   92.946060
H   13.450081   71.829781    5.101098
H   96.173340   61.108681   43.849766
H   82.613266   53.644318   68.967773
H   34.514862   15.563002   82.088959
H   23.003033   93.871483   49.400440
H   98.050369   18.614956   20.032373
H   87.620445   74.465393   86.411232
H   87.159187   35.193283   73.814461
H   89.792091   13.620565   72.868935
H   70.340088   38.728535   87.436089
H   97.370865   63.135990   10.890926
H   11.931381   52.073132   52.121513
H   19.772129   84.202675   72.592995
H   62.858711   65.124413   25.237392
H   29.236980   19.425270   70.905762
H   79.543098   29.886044   89.870216
H   45.883472   65.313538   64.771034
H   50.740139   62.449196   20.137699
H   10.069466   61.998318   77.401878
H   62.416641   82.043427   73.437462
H   11.618576   53.073914   42.579910
H   95.326241   39.545982   38.596390
H   89.841515   17.841036    4.125350
H   87.379219   49.107193   86.552650
H   15.675726   26.461929   53.607964
H   78.122292   60.974983   34.334957
H   61.139099   72.533775   90.618637
H   58.421562   63.500774   37.055328
H   60.661549   23.233086   21.743008
H   82.576729   29.314240   73.599922
H   93.345581   65.405243   72.346107
H   47.368076   73.010704    7.872197
H   64.234962   53.109299   86.458221
H   12.419708   46.934608   37.065544
H   61.315975   15.840711   98.135384
H   29.322250   56.530396   42.072361
H   84.093025   35.022289    0.323772
H   59.225941   33.864861   88.055466
H   25.347069   78.211731   70.842270
H   72.433487   88.547310    1.890961
H   29.506805   68.159546   25.683071
H   69.567108    4.111168   90.623009
H   46.927837   26.310446   42.865776
H   69.234032   64.701157   35.608952
H   90.710960   92.082382   10.673223
H   94.640915   93.121841   90.469017
H   56.601078   65.119385   87.590927
H   62.979279   71.592201   74.337540
H   67.918701   33.807606   10.033256
H   43.036594   15.850588   24.813576
H   34.245556   35.348213   29.496742
H   49.344929   61.275085    9.560995
H   19.869118   96.709335   30.645153
H    1.597764   52.071190   57.949192
H    2.030277    5.410236   62.091934
H   25.567553   94.143013    0.060890
H   21.798529   37.355995   39.125107
H   24.370491   24.905346   91.597298
H   12.137461   48.307247   70.998802
H   86.883293   63.640335   86.397598
H   58.566414   64.909256   88.942078
H   33.811253   45.174232   69.094086
H    8.060356   78.653046   43.281071
H    1.114053   19.975479   26.216150
H   85.332886    5.617090   46.597336
H   44.238571   82.487274   94.013687
H   12.577518    4.834723   89.943359
H   94.416786   63.193604   35.504833
H   67.581749   88.753838   87.473236
H    6.990295   34.634720   80.915169
H   15.585046   26.775665   52.436699
H   65.444138   83.336090   88.113831
H   81.129997   20.819923    0.784932
H   88.676384   38.296291   14.761524
H   85.751686   41.594646   40.259651
H   81.824799   39.667187   10.843950
H   50.141201    7.915352   88.431618
H   86.255211   33.627224   93.235374
H   67.419785   40.117165   37.507256
H   43.390465   99.341110   84.735931
H   49.461784   88.388199   20.459263
H   46.219986   20.369787   74.874893
H   16.052837   91.653587   44.899113
H   22.589064   25.292374   91.283012
H   95.431076   57.802910   12.051543
H   19.441362   10.973096   46.458504
H   64.941399   63.172771   25.362747
H   96.220322   17.118292   72.804573
H   67.603836   30.657558   66.297333
H    1.160777   39.100235   76.474045
H   79.358322    4.798791   62.555962
H   19.551579   30.712963   42.693733
H    1.754924   24.022181   83.424591
H   39.509254   43.135536   71.699738
H   53.261032   28.312277   17.666580
H   25.072683   56.310852   47.725586
H   25.205797   21.538239   42.933327
H   86.110710   66.045341   77.811577
H   59.844738    4.854987   45.372631
