100
TIME:    6.845, STEP:  6845
H   54.422684   94.301704   92.879227
H   11.434216   75.785210    9.704021
H   97.428696   66.360680   42.992626
H   82.625519   50.636810   64.966675
H   33.861008   21.414274   80.109573
H   21.870762   93.792397   56.630154
H   94.224152   23.544483   25.741068
H   81.882790   80.781158   79.708946
H   85.364708   28.174652   69.219658
H   87.798225   14.668877   75.727180
H   63.549805   41.665867   80.404091
H   94.585022   66.795120    5.694870
H    7.273087   47.658222   44.867851
H   16.157829   83.977669   78.147972
H   63.745369   58.603691   21.726963
H   26.301598   13.040379   64.846191
H   73.672890   34.714207   96.515694
H   47.444592   61.761337   62.240662
H   51.876865   65.511566   23.983410
H    8.102890   60.448338   82.372063
H   58.084717   74.776398   71.455849
H   18.617157   53.170822   36.363281
H   94.351585   38.952278   36.507843
H   83.059029   18.714327   98.703766
H   84.768257   43.317741   87.091774
H   15.332500   24.309689   46.738266
H   71.827690   57.940186   35.783573
H   54.979836   75.941170   93.031326
H   60.008858   70.123970   33.604492
H   63.460758   21.426353   27.546104
H   85.449455   35.860138   67.824394
H   97.954865   63.388157   65.588127
H   52.510357   67.669594   14.448613
H   67.319328   46.419266   83.382767
H   10.602812   41.407478   41.507187
H   67.661812   21.558590   97.905922
H   36.323723   53.857056   47.824497
H   81.075493   33.686176    5.475032
H   56.144360   32.274223   80.981140
H   18.471294   71.378006   76.585495
H   67.444366   91.052452    3.610704
H   23.354782   68.445816   29.409874
H   70.195343    4.549067   95.896172
H   42.266758   27.535727   50.003036
H   62.901657   61.821056   41.855656
H   89.768608   93.474747   10.969797
H   95.211227   97.091751   91.169655
H   56.605404   65.871262   92.107758
H   65.113228   65.545998   71.425827
H   69.451416   34.918713    4.929029
H   43.031582    8.802717   25.582996
H   37.793858   28.574081   24.704781
H   50.859264   61.698364    5.321245
H   18.178787   95.518585   33.866409
H   95.785416   58.468826   58.570187
H    2.121198    5.333447   59.606842
H   30.195215   92.036644    7.003901
H   16.363016   30.462057   37.244858
H   30.127640   27.990269   85.993309
H    7.320297   53.918476   68.922508
H   91.488121   60.245750   80.705612
H   55.975502   64.229782   85.639389
H   38.767513   40.192909   64.088257
H   13.073147   79.050705   41.298901
H    4.011633   14.145092   33.014469
H   80.848358    1.988171   50.913666
H   38.381729   85.011353   97.538040
H    7.534792    9.009814   93.433182
H   98.054756   57.948288   30.926182
H   69.060997   92.425224   87.319519
H    4.672078   29.667877   80.039650
H    9.576442   24.347015   57.786522
H   60.684479   79.725967   86.242493
H   79.522652   16.199780   96.447479
H   92.196281   38.400440   20.295616
H   87.477104   46.273548   35.347946
H   88.454681   33.348637   12.138571
H   53.570873    3.141985   92.462791
H   89.756172   33.412800   94.049629
H   63.839737   36.140572   31.218224
H   44.819031    0.096350   89.099045
H   54.939346   88.861603   14.352074
H   50.837624   21.590612   81.826691
H   21.075096   97.900291   38.231915
H   19.034636   20.725975   84.206459
H   93.751328   60.484604   17.120972
H   24.316866    5.665294   49.939415
H   66.115440   57.330967   24.605858
H   97.735214   13.053879   72.207527
H   61.149700   27.653950   68.907181
H    4.148275   43.041740   78.015671
H   84.759583   10.288983   63.946655
H   24.231037   32.903431   48.338936
H    8.809957   28.451014   88.346878
H   38.247215   36.596436   73.377258
H   59.290527   25.429804   13.895979
H   19.278498   60.500198   43.527328
H   25.064890   25.150311   41.468002
H   82.633141   66.360573   71.697426
H   64.378883    2.981770   38.340076
