200
TIME:    0.026, STEP:    26
H    2.895369   63.185215   11.680309
H   26.056894   29.753719   81.209633
H   22.623100   59.771408   34.807549
H   10.629024   74.472481   50.095741
H   17.482368   78.305450   56.735306
H   96.580383   58.623291   71.884270
H    0.258801   55.455971   45.509228
H   98.093163   79.645355   32.668423
H   78.737663   90.714462   52.939945
H   18.394436   77.896507    4.513185
H    4.734526   90.022652   86.199066
H   29.892883   36.310875    2.545560
H    5.921809   79.905678   70.062492
H   14.519016   52.304058   31.953732
H   29.953943   70.297203   43.505135
H   35.538082   34.783710   58.939438
H   74.140244   97.695786   25.822083
H   41.643929   72.879456   47.330250
H   57.905262   37.449154   39.333557
H   89.375420   82.643517   45.766422
H   55.516853   66.075562   35.644779
H   94.793221   40.634590   78.821411
H    1.413623   64.097412   54.271019
H    4.111350   86.167183   92.269035
H   93.944984    4.097037   53.046444
H   18.838240   52.839733   14.024466
H   94.751991   54.502781   40.477585
H   89.599152   61.301224    0.168185
H    2.055393   63.034370   39.591454
H    2.720011   15.031561    6.028275
H   13.640886   42.508640   15.933174
H   35.817570   58.490707   88.334435
H   32.294029    4.380739   70.565216
H    3.509567   63.344444   34.549805
H   58.258060   98.643661   35.846882
H   40.051620   54.801247   77.022545
H   80.122284   79.047882   84.348366
H   43.500454   39.219677   24.789295
H   60.990433   54.063648   39.674789
H   92.135040   40.568508   72.055756
H   80.442459   15.224706   94.421165
H    2.687683   47.594337   46.176590
H   80.555008   92.697960   42.381977
H   37.758011   52.841064   11.094691
H   21.465410   69.766022   36.641289
H   44.071289   19.407932   40.360477
H   75.941406   36.696503   91.486656
H   95.325737   65.553871   55.340897
H   78.804260   36.873165   61.012043
H   69.774918   16.835768   14.766281
H   83.298965   73.204750   36.349743
H   29.318712   32.014629   58.939903
H   46.406021    0.546406    5.128467
H   25.591564   77.667679   78.534111
H   86.257065   81.144226   97.694328
H    8.048983   77.622017   71.640717
H    6.041212   15.935663   51.950153
H   65.070663   53.604588    9.165906
H   32.696712   70.343491    1.950653
H   48.052792   97.190834   70.950241
H   51.112595   19.551603   48.488892
H   86.091705   15.917965   47.426144
H   65.551666   20.773306   92.104675
H   18.941021   64.847023   98.889702
H   67.908295   72.888794    9.178631
H   47.134178    8.247248   29.016678
H   94.168800   27.675968   81.413795
H   98.539818   90.963387   83.034721
H    8.910666    2.961345   64.688438
H   46.468830   37.900105   50.994022
H   58.559044   72.890823   67.557129
H   38.154507   29.446859   46.262821
H   70.701797   21.963421    6.661257
H    0.893548   13.668473   54.343098
H   76.539261   97.407112   77.674988
H   47.904655   26.631878   64.275711
H   96.332092   21.983484   75.172585
H   34.481419    2.073089   55.285255
H    9.903584   20.158922   39.678158
H   71.500656   91.860443    4.410537
H   34.285442   33.718674    4.310123
H   17.226856   72.438499   94.472893
H   11.834630   11.318900   96.541084
H   31.652594   54.861885   86.876678
H   46.528801   97.060944   63.846825
H   18.638096   93.261841   32.237617
H   26.263979    2.338181    1.280726
H   77.111122   26.509016    3.370631
H   59.141869   71.518410   76.387535
H   24.515991   76.455101   57.219845
H   50.213150   33.045406   81.706345
H   85.546074   86.657867   93.698349
H   37.093746   19.275623    1.824587
H   69.624481    2.121988   63.228725
H   19.702328   59.820961   59.026924
H   78.134315   22.924698   39.123257
H   76.402672   21.680975   89.112686
H   12.777685   25.113327   46.567402
H   41.866997   71.921753   52.122864
H   63.483532   94.449753   27.198160
H    0.318416   74.509521   58.862411
H   82.614571   73.418945   67.045036
H   18.743376   44.990540   27.512161
H   11.592810   67.544373   81.664215
H   25.622423   30.285042   18.149405
H   78.951073   37.250469   53.909775
H   55.520931   27.439577   57.255173
H   66.011635   26.057861   27.016489
H   67.358070   42.790939   88.784599
H   97.492615   31.044130    4.489893
H   44.378967   97.926414    0.645286
H   77.401108   57.963135   88.073555
H   60.810860   77.791336   98.590172
H   63.949089   24.010921   80.472473
H   70.991646   73.057343   34.276218
H   22.771801   12.057863   69.280289
H   41.373508    5.429289   81.685349
H   41.856853   16.463177   38.256157
H   10.735217   49.679142   94.116226
H   65.135155   42.403744   41.359718
H   38.321053   20.337360   94.532234
H   27.522778   32.549534   41.893326
H   27.077053   30.848080   17.680841
H    7.230241   75.020226   27.236439
H   83.317497   14.246279   99.890945
H   39.882168   56.496784   29.663317
H    0.705841   48.190720   79.319443
H   80.109596   85.891563   33.195187
H   89.834190   60.229969   89.767113
H   57.372711   25.163654   62.855812
H   39.970390   92.826691   95.233215
H   89.914070   83.928879    4.280415
H   93.136543   72.183067   95.783279
H   11.414088    7.516096   47.072746
H   93.854370    5.239525   66.250580
H   68.057800    1.901500   86.834328
H   68.538422   86.019203   44.685356
H   89.392998   70.901894   86.579674
H   40.719635   41.340912   71.600700
H   43.332024   19.353701    1.403932
H   40.023129   69.362564    7.997336
H   67.089951   34.508636   41.258205
H   61.884842   52.822124    6.602205
H   67.519020   34.274284   74.578224
H   30.242931   76.864380   42.070835
H   38.099136   58.288300   40.095383
H   39.669914   97.714958   48.814175
H   48.495842   81.384590   70.052757
H   59.464329   73.726364    0.071872
H    2.604446   86.280792   97.993401
H   83.763252   57.675579   52.959743
H   24.779325   13.031046   54.858604
H   66.234299   39.840405   10.977364
H    4.252823   96.230133   81.240807
H    5.126595   48.227482   56.881287
H   57.149300   42.998280   47.477135
H   57.071209   54.466297   78.221848
H   43.003548   40.093445    4.710482
H   22.176237    2.540677   10.540881
H   66.078209   65.675446   70.028641
H   51.853859   93.103462   89.105812
H   53.651684   24.165306   37.397896
H   56.007717   43.899956   37.321033
H    3.419598   13.892918   80.354919
H   61.003212   14.826970    7.721844
H    8.226672   71.247566   63.471645
H   78.584816    1.028081   49.953075
H   23.445271   21.196014   39.163532
H   91.165138   28.866144   37.362251
H   16.707016   12.074649   92.813202
H   83.453247    3.088863   35.994034
H   53.555763   73.395050   56.800957
H   33.538155   86.649551   96.445389
H   73.856224   79.674194   69.287125
H   81.384216   96.646378    9.293014
H   94.299927   46.504906   23.081434
H   37.616161   46.236099   77.955925
H   99.833321    8.996773   62.143810
H   81.074348   26.354372   71.637756
H   96.480354   52.159538   83.366158
H   85.324844   77.520668   46.694923
H   14.911293   29.844814   61.803745
H   75.486801   90.387802    1.834551
H   46.821220   24.824003   69.317451
H   82.755554   97.616226   79.278488
H   94.780327   34.418015   82.883156
H   23.900835    8.190258   94.523819
H    0.702092   58.160381   18.038620
H   12.815662   60.219097   64.097641
H   45.722054   59.437420   62.999287
H   37.597179   38.104507   80.829659
H   49.407242   79.113556   27.350164
H   99.347130   12.432887   52.904060
H   38.842426   54.989662   29.000248
H   92.238449   63.813923   22.516300
H   74.805679    9.858332   32.498344
H    8.038798   79.724174   96.243729
H   35.129021    1.659088   53.001953
H   14.767049   11.013105   87.587898
H   10.239828   42.242702    0.722048
