100
TIME:    2.103, STEP:  2103
H   75.105133   29.165421   97.220657
H   42.771507   18.765688   10.656647
H   15.903502   25.201958   98.648949
H   81.829590   46.007103   24.890186
H   76.334671   41.322239    8.684231
H   95.406380   98.929756   87.012932
H   42.751865    3.341317   54.910194
H   54.594643   70.537384   15.102985
H    1.932204   84.098450   67.711922
H   17.370840   46.579323   90.040398
H    4.639084   50.861210   37.177982
H   75.575851   29.102999   43.234825
H    9.491086   34.473091   16.108101
H   50.953163   98.593819   17.278881
H    6.079843   82.178955   49.683899
H   16.967659   27.793159   58.474380
H   54.989395   21.071754   64.826035
H   46.084755   92.431602   26.638859
H   78.018227   66.578766   74.155746
H   35.859673   61.152012   59.514656
H   39.481628   46.857571    0.165728
H   63.997005   46.875748   40.188385
H   57.665947   77.518654   72.180756
H   23.650063   61.903904   50.887794
H   54.368279   19.387268   52.078239
H   37.016171   64.943542   92.058067
H   80.735161   55.059406   41.698071
H   55.096191   54.600643   36.285435
H   56.898560   39.892311   57.762138
H   81.632042   38.790909   50.570827
H   98.827797   10.632311   43.000835
H   98.542023   94.409981    4.578824
H   18.489788   14.616882   87.251801
H   66.957954   80.995407   83.155426
H   28.497929   99.949310   52.785408
H   55.402386   49.686344   13.410436
H   81.503784   27.520384   74.173523
H   77.069405   20.463215   70.843376
H   56.306313   35.594666   40.515587
H   65.113365   15.307174    3.493414
H   91.524849   28.342730   91.890305
H   42.615540    6.240452    1.602608
H   29.355207   76.111008   53.374527
H   45.068077   48.017563   86.354050
H   74.235207   48.915928   36.070229
H   50.955952    3.028278   91.709541
H   58.158657   39.206512   45.642410
H   56.351727   17.035711   98.699684
H   26.503119   58.277958   60.586639
H   69.994255   62.758404   36.577785
H   43.384174   66.612434   75.590546
H    7.335131   68.597244   36.004147
H   52.504128   34.202637   80.731285
H   27.992664   72.896477   24.615599
H   73.341049   42.865360   18.251112
H   96.197556   10.321796   21.035721
H   29.572893   28.866051   56.000267
H   69.463226   78.285065   59.387405
H   56.135033   27.626005   50.035400
H   20.242931   89.431137    3.796066
H   92.359177   80.772163   50.428600
H   24.272408    8.369362    0.198960
H   16.877625   63.744499   89.284103
H   87.448730   53.234291   70.046684
H   15.793017   92.880707   91.409439
H   72.154671   37.726601   70.531120
H   18.841002   21.069513   68.595108
H   35.097298   37.810547   66.738159
H   61.717262   98.678169   28.335846
H   72.988831   53.918953   97.304810
H   55.252953   52.311699   36.925175
H    0.565758   81.730515   10.593088
H   69.872055   14.284199    7.823788
H   83.909142   16.297182   78.221016
H   63.563812   31.636019   60.819683
H   75.376228   42.355446   54.423504
H   57.894508   44.273148   28.241976
H   30.783092   13.210218   30.580769
H   62.357147   47.341557   41.140907
H   96.390175   94.419907   39.745796
H   52.036182   51.038158    5.680460
H   99.112885   57.961746   10.925749
H   50.859730   42.358307   30.200138
H   94.836983   92.118019   71.344055
H   49.931107   17.339691   43.890121
H    2.887682   86.301628   87.821861
H    7.609350   50.447693   23.822584
H   89.809311   36.923172   73.878334
H   99.324654   77.080666   10.994419
H   80.405319   22.751732   99.396141
H   10.086090   86.987396   77.873245
H   33.888683   53.670147   73.592445
H   20.216389   90.645920   81.608810
H   50.491314   40.795307   68.611931
H   20.231949   61.356674   64.411339
H   67.620758   12.686453   58.826279
H   95.676437   88.367485   16.244095
H   14.586637   34.143463   22.387211
H    8.531267   45.915501   68.891342
H   69.844742   24.685555   95.136505
