100
TIME:    8.829, STEP:  8829
H   20.252853   12.360170   91.062820
H   56.640671   83.294769   34.801449
H   31.533304    9.097808   19.701214
H   82.958527   68.895561   56.216270
H   16.083723   80.440536   26.314476
H   91.104126   91.642982   53.111923
H   90.242317   57.515480   80.892464
H   25.944305   52.421871   97.543694
H   36.594200   37.420395   44.333431
H   33.608772   43.156361   53.411781
H   79.002960   21.495792   89.295448
H   18.862129   66.242760   64.471153
H   80.753571   27.579971   47.705292
H   17.922266   77.862434   29.130894
H   87.843025   81.383034   26.314362
H   46.528732   39.512413    0.156315
H   14.131463   65.939156   77.127052
H   89.865707   65.219826   93.470291
H   82.780106   48.741932   28.507778
H   54.644939   18.320391   17.451929
H   40.351341   77.262787   17.610422
H    8.825173   55.804611   67.407379
H   67.862328   22.820845   79.741943
H   98.716141   42.448700   51.356396
H   13.809144   85.976349    1.743274
H    5.977087   65.824570   60.034695
H    0.743998   75.467056   75.149887
H   87.576324   68.547577   58.614349
H    3.148707   50.127773   39.819817
H   39.535469   72.321609   85.269043
H   63.534603   13.769571   10.856697
H   23.225605    8.577585   81.919334
H   92.259415   22.510529   93.182999
H   51.148651   64.597534   99.800560
H   61.226311   91.190834   62.217594
H   40.127048   76.957352   91.669594
H   26.615311   81.197517    4.156070
H   99.074318   97.375847   45.478584
H   72.398460   89.049339   88.716980
H   31.600660   85.641991   32.681610
H   31.851328   59.124451   50.351894
H   56.153885   76.226089   30.697407
H   87.269562   16.450455   39.200581
H   15.583355   60.842537   43.986736
H   90.805527   83.552223   11.632575
H   64.157280   31.310604   19.030100
H   10.718333    4.988791   10.217703
H   56.726498   86.305832   14.865654
H   23.111351    1.233329   92.281158
H   11.104633   65.117027   66.210228
H   42.895351   17.260548   46.499619
H   34.218960   44.473476   94.466957
H   92.005699   73.202271   90.098068
H   72.229706   63.155884   21.415352
H   37.817177   32.335945   75.437363
H    4.592268    3.246472   92.066788
H   55.971001   34.789574   95.698723
H   68.630310   43.097374   86.139671
H   86.602119   11.825162   33.683037
H   76.395256    6.413630   12.492821
H   16.640497   67.980225   26.017948
H   85.559441   45.762985   95.869911
H   73.462357    4.807540   28.039429
H   49.312031   89.858322   87.431702
H   82.761780   55.687191   17.775042
H   58.969460    3.357869   68.223747
H   79.201096   53.601994   93.325607
H   70.486298   22.477585   88.279861
H   96.937103   15.390694    6.492348
H    9.337401   92.102737   83.117447
H   41.667309   94.674156   56.244728
H   46.220230   58.442772    3.208627
H   31.324402   81.591881   35.374470
H   35.847843   90.632545   78.564644
H   87.773392   41.315456   70.722382
H   34.380707   73.429924    1.850310
H   68.644363   61.629063   47.327171
H   46.777309   73.419289    2.041012
H   84.895927   27.585163   16.187883
H   66.542900   28.062307   60.294975
H   83.657707   20.622416    7.680436
H    3.817769    1.729590   48.369431
H   76.328682   54.770298   70.773079
H   57.569260   67.675880   57.023739
H   22.432098   96.614304   91.881210
H   48.093708   33.357109   54.895798
H   56.823795   61.411934   44.544029
H   98.023643   98.568825    4.034868
H   38.912601    2.588155   55.980965
H   85.736710   46.028297   39.832108
H   85.341728   50.169926   19.914452
H   31.555490   59.504501    1.757504
H   51.409382   92.428917    1.764706
H    0.554435   48.818104   22.123968
H    3.941443   58.882511   18.967230
H   23.160828   47.083984   11.419714
H   61.797783   74.357002   29.424976
H   21.235300   23.319679    1.637526
H   88.119957   74.927956    5.515385
H   87.614655   52.065945   47.214977
