100
TIME:    0.196, STEP:   196
H    4.068107    4.047174   98.966568
H   95.818092   15.371552   90.364166
H   83.131989   88.005089   21.038506
H   81.509506   24.575354   29.419485
H   93.415497   88.467789   60.390831
H   24.977013    1.000329   98.155602
H   42.697826   74.573204    5.780008
H    4.481085    5.559134   90.197762
H   48.809944   67.448776   87.749580
H   69.484230   19.201027   15.364145
H   82.023590   74.129044   20.870094
H   48.360851   33.514992   78.977745
H   30.795177   49.849167    5.648507
H   45.377216    4.472954   72.156502
H   82.886757   52.514397   41.351116
H   93.642822   94.593391   16.769917
H    8.308191   94.958900   91.200310
H    5.333125   85.169067   92.751266
H   48.316330   86.575500   73.687744
H   87.343849    1.422503   29.559534
H   52.645630   36.705177   51.921890
H   81.141518   44.358635    2.566008
H   83.127144   93.028160   26.742966
H    0.830985   39.032475   92.517838
H   22.572977   70.629616   38.005692
H   45.758167   21.771416   70.800652
H   45.177708   34.329350    3.855658
H   16.003090   65.587799   73.254410
H   15.433131   66.874626   47.906891
H    8.509452   85.988693   98.970512
H   23.811831   39.618660   93.902214
H   78.132965   47.095207   81.119392
H   84.164001   54.141762   15.454183
H   86.383461   55.760437   63.494102
H   75.899940   44.104141   36.663277
H   89.596306   99.882317   19.969923
H   98.598320   97.357277   23.909191
H   55.887680   55.366879   36.272350
H   41.909229   76.323967   23.340820
H   44.732220   93.834084   53.455635
H   21.847492   62.903782   46.956684
H   14.005814   20.653437   12.008544
H   12.929778   64.675293   15.630697
H   66.843552   16.056479   99.895767
H   39.653893   24.158688   72.879700
H   75.448204   66.888725   84.086906
H   38.149647   36.314060   29.298040
H   56.249882   97.400375   80.705322
H   70.757072   16.216885   36.655472
H   30.000532   33.732639   69.955460
H   43.528240   50.721626   55.485882
H   14.658303   45.551826   61.196220
H   12.944984   23.145203   91.486549
H   72.146973    4.004202   40.464802
H   25.155815   75.687744    2.069317
H   93.811478   12.326160   85.954498
H    8.678102   83.891335   74.628639
H   11.464931   58.376854    8.506330
H    5.735870   47.050415   96.436172
H   46.085373   42.853447   58.032478
H   72.064468   69.454575   99.114777
H   91.954712   26.121017   86.486298
H   87.527534   93.787422   20.111786
H   56.499176   42.860672   21.819067
H   40.101540   45.190266   13.813931
H   89.304878   32.529408   57.774914
H   71.843102   55.137241   76.525009
H   66.826698   28.747082   75.572533
H   66.672569   35.703011   47.940441
H   34.357170   58.003143    1.318607
H   15.808630   82.068535   59.796696
H   57.805103   45.020699   70.972725
H   94.211777    8.612568   56.723835
H   25.876846   36.976406   91.559746
H   71.620529   28.922583   16.255970
H   30.291761   20.133940   82.741043
H   84.750671    9.556137   94.500671
H   41.188766   37.904621   25.264202
H   70.948753   52.926617   19.873924
H   89.913254   98.279243    4.035646
H   14.717468   31.309114   91.703369
H   56.029819   45.507584   70.391296
H   30.197659   10.528819   48.567841
H   63.654106   28.933567   45.527748
H   42.786621   36.624313   28.752289
H   46.784702   16.251101   55.394817
H   80.245110   89.102119   32.889217
H   59.110382   89.601906   93.701118
H   59.750679   83.259453   26.597328
H   49.006325    1.222547   31.218416
H   32.043705   84.014679   37.600903
H   92.788643   10.247496   37.259117
H   97.860207   33.504211   34.078178
H   66.172829   25.121054   40.033863
H   53.203159   32.173199   20.590878
H   10.110428   87.991692   57.325294
H   47.044579   78.928490   25.916817
H    7.584915   17.906494   52.899292
H   99.375237   37.695171   28.633900
H   51.413769   73.668938   78.808334
