100
TIME:    0.340, STEP:   340
H   94.329994   90.841652   98.834732
H   91.812477   23.178986   99.447662
H   85.606110   98.365196   19.347710
H   81.533676   18.642187   21.526358
H   92.125702    0.010025   56.486290
H   22.744041    0.843602   12.416567
H   35.151318   84.296104   17.041216
H   93.162964   18.016735   76.976814
H   45.270149   53.603806   78.685860
H   65.548927   21.268105   21.003428
H   68.629059   79.923233    6.999306
H   42.864391   40.733009   68.727501
H   21.635326   41.137009   91.335808
H   38.247089    4.028969   83.114265
H   84.637978   39.652702   34.428631
H   87.853027   81.998665    4.816828
H   96.731071    4.481786    4.311288
H    8.410239   78.166382   87.759079
H   50.558640   92.615784   81.274902
H   83.445900   98.403198   39.383507
H   44.100464   22.369118   48.014053
H   94.949135   44.548698   90.305061
H   81.204536   91.857018   22.622543
H   87.451828   40.759525   81.823746
H   17.423136   59.209965   39.069168
H   45.099995   17.478603   57.304619
H   32.759861   28.343235    6.713065
H    3.853262   72.309235   78.013687
H   18.564285   79.939568   41.099762
H   14.030906   82.424728   10.417839
H   29.476381   52.531990   82.507195
H   87.225250   43.117058   67.788582
H   94.306580   43.605873   28.426840
H   92.467690   42.563660   57.427452
H   72.320595   33.218887   45.431465
H    2.116405   11.194376   19.474440
H   12.409780   92.083839   35.255871
H   49.936386   52.731258   46.433605
H   35.434986   73.249992    9.538825
H   31.169563   80.353859   64.785759
H   12.007038   67.845192   50.350361
H    1.063903   27.116693   18.773764
H   14.169860   65.538818   26.031994
H   57.647995   18.469625   13.975319
H   27.163322   18.477108   85.201965
H   73.609093   69.595757   84.651604
H   39.670155   44.082493   30.528509
H   56.257572   98.883530   89.615234
H   74.967033    4.291183   30.910826
H   33.020672   35.924412   59.883644
H   43.518681   36.819115   57.001789
H   21.656046   32.189156   51.742485
H   15.931892   23.980164   83.123756
H   68.813721    1.654501   46.819294
H   13.691637   88.311035    3.291202
H   93.991653   12.174620   81.052399
H   17.806862   79.736305   88.324196
H    0.741908   44.777977    4.797071
H   17.092438   53.134644   85.381729
H   36.581894   53.922218   53.939171
H   81.147964   62.757515   87.886749
H   86.843872   24.780685   79.971405
H   97.294380   83.967842   10.232718
H   66.387703   43.643997   17.909033
H   45.817726   33.688679   27.224394
H   80.458687   25.370716   66.289314
H   60.289879   60.115147   83.477158
H   56.879677   36.982651   82.456566
H   73.848839   25.356087   38.908581
H   37.274040   65.246239    1.015796
H   11.235571   72.270927   58.069645
H   45.932178   40.241646   81.515205
H   84.822861    1.490131   53.031330
H   22.707291   27.863497   83.001396
H   78.563889   29.127478   27.172535
H   33.696423   29.363005   73.051102
H   97.824402   97.075310   97.049500
H   47.954147   28.488636   33.217136
H   77.850365   52.505840   21.479576
H   82.851242   90.437202   91.629944
H   17.535336   32.799114    0.310047
H   66.834572   46.448013   58.349762
H   39.308727   12.932353   62.283173
H   73.559418   41.255833   32.374916
H   35.774979   27.616501   14.793157
H   43.467999   21.542603   65.393883
H   89.862541   78.632149   39.755672
H   61.428497   78.072853   92.204781
H   62.738960   75.241631   25.419044
H   36.275368   95.296738   36.366528
H   37.936771   91.790802   40.641918
H    3.443245   21.077269   40.002403
H    7.099311   37.818542   45.218315
H   80.090309   33.855850   49.742481
H   50.713657   19.274151   23.899410
H   22.004227   82.305168   49.887550
H   35.614403   87.192406   17.635323
H    8.113524   19.132568   50.595459
H   92.515373   38.315899   16.572010
H   60.356640   69.970940   64.939194
