100
TIME:    9.959, STEP:  9959
H   43.835114    8.734315   90.028275
H   25.432777   44.528484    6.051136
H   50.956905   90.394661    6.435919
H   83.148193   22.340101   94.275406
H    5.958105   71.014755   95.677269
H   73.585815   90.418770   65.019859
H   31.019295   33.817757   69.259949
H   37.128540   50.181301   93.790993
H    8.816643   28.774681   73.204872
H    2.740754   59.381489   97.655861
H   73.893036   66.963089   80.445168
H   75.735039   22.882988   84.036827
H    8.697229   59.182838   35.410034
H   61.971344   74.379463   15.123890
H    1.568238   80.445862   71.970238
H    1.092121   40.678452    6.356507
H   23.263588   40.680779   79.995407
H   14.034659   10.233938   54.297623
H    0.384618   96.144150   88.052734
H   24.203426   94.322235   94.387657
H   73.295044   64.769173   86.937515
H   17.159378   57.304703   71.177444
H   52.774826   13.630583   47.443123
H   93.723022   55.966766   67.433533
H   73.393661   96.361267   10.084438
H    0.646681   32.512192   53.696148
H    3.302879   28.492476   97.565048
H   92.230385   21.292164   95.962700
H   27.720104   52.650242   86.405197
H   82.865700   44.354385   75.100655
H    8.004081   15.098900   21.454712
H   94.574783   77.353592   77.309578
H   71.856972   39.834152   94.982323
H   98.892944   61.039757   52.194206
H   33.103905    5.633918   30.966864
H   38.355778   65.467453   88.117653
H   34.996887   39.815681   93.195694
H   52.366718   76.702171   25.220215
H   24.698788   64.427147   79.211540
H   25.167297   79.854782   21.587671
H   54.624146   97.901596   76.974205
H   60.923157   80.663254   88.373528
H   96.994293   23.231041   20.821857
H   43.436787   79.810646   54.470448
H   92.756775   38.927311    8.314315
H   49.578712   52.863506   23.620897
H   19.553791   66.447205   21.068651
H   56.795467   97.944473   84.783676
H   56.139130    7.650500   47.175507
H   34.822044   82.324974   87.199837
H   46.735508    8.460320   52.393036
H   89.136108   39.617836   20.289335
H   15.442352   79.754395   24.468781
H   46.061607   44.715103   71.279549
H   47.844734   31.363691   85.041397
H    5.999681    2.057822   53.598923
H   27.609467    2.183414    3.171155
H   84.488480   36.382744   57.034447
H   75.726768   59.576256   46.932911
H    1.828520   93.269455   80.352943
H   87.925507   15.431902   37.921253
H   45.453545   35.245102   44.742851
H   50.207249   27.747381   50.574631
H   26.906425   96.013870   56.755379
H   27.612034   65.435066   23.006880
H   89.553040   47.182152   35.038662
H   88.538887   92.671051   47.883068
H   92.429375   87.102852   42.300400
H   53.258545   34.196106   35.621883
H   32.287079   48.858006   80.720749
H    5.779791   17.784969   42.692177
H   53.166985   20.923241   86.036163
H   57.647141   25.697340    6.398563
H   10.975636   19.115574   11.423937
H   42.205223   42.979351   56.399647
H   61.097855   45.851719   25.815308
H   71.272408   63.824612   67.370049
H   99.863960   99.535378   64.450157
H   39.083191   24.265995   28.800722
H   11.127160   66.505287   62.944496
H    5.779203   32.312786   75.219307
H   88.611107    9.065324   53.833138
H   47.802505   73.668007   78.388138
H   35.312527   64.372513   53.815910
H   67.411499   25.924980   82.340988
H   22.083500   74.866005   33.366520
H   32.294010   79.251411   98.426628
H   16.195652    8.148562   92.324417
H   62.362309   39.670631   46.739021
H   85.829590   99.534164   80.225967
H   31.586630   11.187722   43.777977
H   15.164049   44.491150   23.284937
H   23.844471   26.334181   89.149345
H    5.842689   17.077194    4.338666
H   84.405090   57.663956   44.932167
H   16.494202    2.462888   53.053665
H   72.103813   39.204193   64.436829
H   19.054132   79.231277   78.946800
H   34.289085   79.807564   10.866352
H   57.801987   23.071468   38.358028
