100
TIME:    3.581, STEP:  3581
H   75.153961   93.625458   95.867508
H    1.657548   98.900116    3.888379
H   41.308884   31.534943   81.306084
H   82.077667   85.112419   43.876652
H   63.096359   59.790447   68.609070
H   72.493050   97.328529   33.384232
H   65.288399    3.142952   70.491798
H   38.426758   98.404648   79.398720
H   65.600121   41.994904   74.676598
H   76.981758   67.801216   47.919258
H   67.159134   10.331785   94.809624
H   19.163109    3.187814   38.029091
H   15.475343   45.051987   69.205986
H   77.770943   94.038216   29.755787
H   24.059666   50.157791   78.637703
H   57.540390   98.521599   35.787453
H   36.144508   18.826595   99.380905
H   77.664635   20.556816   75.396667
H    1.044010   28.580584   52.022076
H   96.042137   29.769819   60.143761
H   51.775101   99.716736   60.045990
H    5.694305   48.837814   14.323013
H   37.932518   65.498177   29.894554
H   86.327782   79.630157   41.117573
H    1.507752    2.167236   62.986305
H   30.237680   20.908144   53.523155
H   53.285824   93.618668   71.024879
H   30.387785   23.588669   85.140526
H   89.035858   73.988388   87.896980
H   38.304016    2.209706   68.067841
H   56.991764   43.170559   26.061623
H   91.863838   53.570305   67.752953
H   22.597933    6.479667   20.401716
H   29.407742   45.545418   20.889008
H   91.756531   88.223869   42.785645
H   83.912514   65.792694    8.325875
H   23.263836   73.391586   90.634209
H   15.983573   93.414635   75.142052
H   93.916534    3.394720   97.287117
H   25.903595   76.942474   19.779505
H   90.516205   79.055756   26.712507
H    9.781303   72.576767   71.039734
H   42.086086   84.974136   60.131962
H   50.687698   72.787476   30.865458
H   46.030109   90.603912   62.546688
H   31.887821   31.218891   97.708504
H   69.711227   19.584846   59.839203
H   56.430660   32.253098   90.149940
H   69.703903   35.870934    1.625400
H    0.981723   85.243858   33.204441
H   43.271412   23.921265   91.174316
H   79.162872   31.448868   38.976330
H   83.157188   42.772583   94.890175
H   93.767204   48.780746   89.836761
H   55.668869   72.415222   30.804609
H   98.046860    8.767553   70.721115
H   23.272020   86.218300   96.570244
H   59.407463   38.706650   21.317219
H   72.701927   90.074249   36.567715
H   22.710159    3.034674   61.758430
H   85.592628   12.039802   35.192745
H   71.817924   94.610641   33.325623
H   17.173971   62.922173   87.910545
H   88.940361   61.274254   29.916225
H   74.459755   74.836098   29.052404
H   81.358742   64.250710   57.920471
H    0.257692   72.165192   39.953594
H   33.001732   22.338667   37.395107
H   35.378967   92.478516   35.638676
H    2.937920   28.256090   94.192566
H    8.318836   51.748772   19.191715
H   78.696884   32.678848   18.805386
H   73.503479   41.174747   69.933342
H   51.381756   22.766243   90.383659
H   34.826160   33.743702   72.861977
H   10.312778   37.081108   54.972767
H   92.086433   16.168987   54.381123
H    0.222215   16.567305   12.204212
H   33.234596   43.000202   57.638054
H   23.906471   13.924320   12.414799
H   80.953140   66.328751   94.017212
H   10.010367   67.614212   87.336182
H   44.368824   67.030731   70.972473
H   96.517578   18.592854   36.347679
H   77.964111   24.890598    0.614738
H   68.877686   40.590622   90.458603
H    6.321630   42.985054   94.299118
H   13.598967   18.590622   58.501572
H   30.000473   94.788307   98.902840
H   49.730488   61.945618   52.228203
H   70.571869   66.793770    9.085977
H   43.252029   64.815971    1.760270
H   15.003354   34.965019   95.928673
H   93.344643   30.446381   68.265846
H   94.675926   28.965427   98.375389
H   89.697479   54.321236   82.485512
H   78.359558   73.186897   31.243273
H   20.011244   46.727753   98.736870
H   38.122734   52.286579   45.091087
H   61.639172   86.739235   52.771263
