100
TIME:    4.618, STEP:  4618
H    5.026291   98.527290   94.918106
H   72.937569   55.107697   69.286621
H   59.133904    6.141779   69.137917
H   82.251724   42.389336   87.034798
H   53.808044   42.910568   40.490952
H   56.412777   96.205070   36.082073
H   10.941519   73.167923   51.586620
H   56.920601   88.117767   84.184547
H   40.108681   42.291580    9.399773
H   48.642113   82.691002   88.525146
H   70.699921   52.057728   94.920547
H   79.585075   55.167076   64.214729
H   49.382950   82.330299   66.154297
H   26.424557   90.841896    8.671176
H   36.673378   57.528931   28.788773
H   15.844292    7.821896   49.706970
H   52.755074   87.415665   93.783104
H   99.820992   70.120232   39.442333
H   17.195297   72.085449    6.657540
H   68.098076    7.747652   30.747507
H   90.238060   96.480255   31.904121
H    5.112503   50.214447   26.012894
H   24.087074   57.064323    0.222842
H   89.979233   92.067322   64.101364
H   64.417877   19.928757   70.644814
H   25.494871   90.135834   56.161808
H   63.864662   50.513348   91.595253
H   42.888233   71.992340   19.417490
H   11.585084   68.073082   38.876198
H   78.068130   76.544060   50.506111
H   97.801582   36.160648   44.017479
H   57.340527   24.922104   71.752663
H   95.642555   30.606970   13.822865
H   73.222870   50.510559   77.202446
H   65.980270    9.834766    5.933303
H   74.072586   47.130451    4.909081
H   22.725630   35.415512   72.345688
H   73.120308   74.442421   48.320217
H   50.146603   80.799553   96.794128
H   28.229788   79.861900    1.368538
H   19.644047   14.639432   51.143780
H   16.581375   19.115843   19.758577
H   51.018375   91.192719   35.037033
H   84.468735   90.161530   32.258644
H   56.077625   49.687462   51.285542
H   18.509167   50.998096    1.920528
H   77.812790   75.980186   69.795403
H   56.486042   42.933868   54.313591
H    0.021469   49.986248   60.262192
H   22.730938    1.020262   60.674049
H   43.192295   23.805592    2.107884
H   29.557970   35.223248   70.899780
H    4.662545   48.785461   34.662594
H   69.747337   31.857658   35.595177
H   73.102844   63.299137   39.625599
H   99.344376    7.676035   35.419189
H   89.013199   56.296318   95.197578
H   82.189835   40.774803   94.605331
H   54.487640   33.891479   56.957619
H   54.277401   82.743011   32.263680
H   51.007874   63.811703   54.339363
H   35.012779   84.958389   86.404266
H   87.576546   92.158737   16.800346
H   60.150490   66.919373    1.758549
H   15.618005   92.011932   25.623568
H   17.654137   12.698301   19.235525
H   17.057714    8.019822   90.018723
H   61.368919   81.645279   86.969704
H   87.062454   17.966293   70.600769
H   23.947367   80.415039   92.008942
H   75.389915   81.191040    6.750695
H   93.192169   98.262329   94.729912
H    5.888747   89.881752   43.343941
H   28.548641   57.144428   28.767479
H   84.823372   35.223186   51.473965
H   34.830620    3.542705   85.196518
H   86.239548   26.288479   72.720406
H   48.942364   48.761349   69.475990
H   82.962532   39.954205   69.209282
H   73.049713   57.448811   23.076286
H    1.239103   77.056992   55.995770
H   87.819191   74.386612    0.622732
H    9.972513   84.348572   69.739624
H   67.859802    7.331047   41.633659
H   27.471399   60.027565    0.089211
H   45.009754   78.682320   62.471146
H   75.580498   67.586700   43.747650
H   30.288660   35.565834   47.717949
H   51.520615   37.048851   90.421516
H   58.046162   19.277916   89.299835
H   13.010306   22.790939   30.985514
H   19.983389   42.797470   21.520594
H   81.476326   66.082191   76.121567
H   93.574631   93.348373   38.186672
H   76.748055   36.077507   22.203014
H   75.349442   13.372042   28.923424
H   96.047569   32.698040   71.603470
H   23.816763   55.557190   82.138161
H   88.722351   56.756680   58.232010
H   26.052965   60.125492   52.874256
