100
TIME:    5.065, STEP:  5065
H   74.797279   57.535011   94.508865
H   60.592140   79.329178   97.469666
H   66.818649   38.299911   63.892742
H   82.326752   23.972759   62.534714
H   49.804306   78.739594   28.371117
H   49.479557   95.720802   80.350426
H   87.513542    3.349752   86.542603
H   21.787285   26.788944   43.142788
H   29.120567   99.314178   81.263618
H   36.426277   89.109261    6.028069
H   29.121063   70.043854   51.862568
H   62.526260   77.573006   32.396263
H   20.858871   55.299950   21.738037
H    4.292708   89.464119   42.689308
H   42.109459   17.601294    7.301599
H   97.870438   68.725601   12.601664
H   16.810097   16.981792   34.475281
H    9.379540   48.371540   23.946638
H   24.157505   90.835495   30.205957
H   56.055008   98.254677   61.181374
H   63.712440   51.981224   19.771839
H   47.966827   50.807846   87.946762
H   18.118980   53.428902   87.434052
H   48.446842   97.420380   30.901775
H   48.430206   84.479767   73.946022
H   23.457193   76.924179   14.128649
H   25.317892   31.930416    0.462289
H    5.172322   92.856796   34.194489
H   21.304939    8.628639   17.746887
H   95.208496   65.480919   86.041847
H   15.394311   76.243408    8.652260
H   85.564491   12.573028   30.371605
H   27.128708   97.903313   54.092155
H   92.109329    9.545697   58.370552
H   54.869385   76.044876   33.151222
H   12.929597   82.140999    3.502856
H   65.597504   19.044533    7.567508
H   54.644817   66.264427   79.864159
H   31.277195   71.059624   53.475998
H   86.126900   38.014915   36.537884
H   89.095215   29.975729   61.674908
H   76.407127   39.177773   40.756039
H   54.868649   93.873245   67.323067
H   55.925159   97.658630   75.964523
H   17.304831   32.052597   89.535912
H   12.741800   59.523945    3.737604
H   81.304977    0.289101   74.085609
H   56.509914   47.537827   81.971443
H   13.086723   12.967014   42.429527
H   32.105961    7.823889   29.411469
H   43.158192   80.650238    6.820120
H   51.281639   93.745041   41.554611
H   13.934558   51.377319    8.701212
H   59.395065   24.562943   55.320580
H   37.512543    2.476831   43.428127
H   99.903671    7.205834   20.202255
H   17.351509   43.398415   37.711174
H   48.904922   98.560570   83.092026
H   89.742805   52.777939   22.639839
H   24.781376   17.100384   19.549934
H   79.204559   43.025684   19.489105
H   19.149263   80.797775   66.180954
H   17.922777   61.656662   86.148193
H   90.843971   69.354355   89.624069
H   33.360428   56.311764   67.250435
H   90.195152   90.477013   45.665657
H   81.193848   23.473335   11.600147
H   30.491707    7.209576    8.338889
H    9.339983   85.847740   42.565170
H   33.003334    2.896277   91.067688
H   61.196083   50.777634    1.388271
H   56.333931   83.427353   27.456985
H   76.743698   67.769112   31.881790
H   18.709064   28.855473    2.208987
H    6.376087   35.860920   85.359100
H   45.399261   32.191338   55.118336
H   26.823778   87.545845   80.625572
H   69.943237   19.532059   94.160027
H    4.399357   38.641224   74.195198
H   51.128052   33.102398   84.567017
H    9.986092   81.681412   82.712364
H   21.358253   77.305862   63.245384
H   38.247635   91.824036   12.308223
H   98.614243   45.582321    0.808231
H    5.705266   32.066193   56.757439
H   34.720760   95.099693   93.512054
H    5.434637   35.086166   65.062271
H   37.484070   99.778915   43.069656
H   60.796738   12.161423   86.765633
H   18.524321    0.885956    5.279974
H   31.303368   46.926563   40.425335
H   53.057606   76.415833   30.036589
H   10.129708   79.497292   10.688801
H   36.779457   20.461954   68.324333
H   69.020226   96.037132   32.473331
H   12.269866   95.720917    5.835051
H   60.566399   58.350613   45.896332
H   25.457136   59.363129   74.983269
H   67.428192   58.683521   20.789894
H   53.816540   48.656521    9.812657
