100
TIME:    9.662, STEP:  9662
H   63.920319   35.969978   90.300186
H   33.634537   28.433582   87.325066
H   45.851765   69.026939    9.922619
H   83.098343   34.577019   10.554847
H    8.619440   47.208893    3.730104
H   78.190186   90.740532   35.605896
H   46.584042   13.762012   46.034161
H   60.472153   24.487919   21.060616
H   16.117470   57.330063   91.898796
H   10.853895   55.117008   86.027107
H    1.519264   55.012573    9.054522
H   87.069221    7.996655    5.177738
H   27.636093   77.160118   64.923843
H   76.677231   75.294899   92.522011
H   97.960640    6.975349   86.254662
H   13.034576   66.655075   31.010757
H   47.146492   21.037430   52.958328
H    7.683257   24.685814   64.591873
H   95.757599   83.686066   72.395157
H   32.204426    0.630466   74.166496
H   90.919449   94.335030   94.999695
H   88.685699   56.910431   96.469757
H   56.740578   16.049288   55.909622
H   21.318405   52.413788   89.490097
H   84.016342   19.915268    7.892150
H    2.047734   41.267746   81.644966
H   28.913559   40.839207   91.673630
H   17.290426    7.429204   86.146690
H   21.262203   25.704065    0.444870
H   71.477135   51.705063   51.489662
H   96.315254   88.466049   44.952408
H   75.821945   85.560791    4.804332
H   50.936493   61.564423   68.226219
H   86.344223   88.258110   64.706673
H   40.495369   28.120979   12.896169
H   12.538622   42.203289   89.051216
H    6.510880   50.692146   69.793167
H   64.641380   82.135872    4.262575
H   37.236179   70.898643    7.993088
H   53.140484    7.658214   98.220352
H   74.922348   87.709442   69.977013
H   85.952904   79.494034   73.218987
H   94.438324   21.448887   99.369804
H   62.400356   74.825600   25.432552
H   18.543127   50.682957   82.913910
H   53.410400   47.198681   22.414289
H   17.231213   50.293728   18.216978
H   56.777340   94.885468   66.406982
H   47.458450   32.243382   59.054779
H   28.588469   77.802177    7.965369
H   45.081379   37.008774   51.835617
H   74.702133   67.178085   39.786079
H    9.281855   78.032288   41.718811
H   52.938705   49.561928   58.173409
H   71.491982    5.335853   82.517151
H    5.629768    2.370237   63.709503
H    8.781635   10.753536   74.924019
H    6.603784   64.430428   64.684227
H   52.301586   47.025269   69.734398
H   21.426960   70.442474   88.800331
H   69.190796   29.243879   61.076794
H   55.994652   38.009537   58.182083
H   30.019966   47.975578   70.922684
H    6.511679   94.395996   64.819595
H   15.823531   89.154823   95.348244
H    7.797950   61.946953   17.477701
H   12.367977   82.401855   33.544262
H   12.945457   70.117439   28.102081
H   38.455223   55.536636   54.250095
H   26.255173   33.941387   81.350677
H   15.212225   37.994801   46.254219
H   77.624428   30.784569   64.265106
H   77.011780   40.387852   14.014355
H   17.512844   37.912243   29.069868
H   27.898466   42.542027   33.880833
H   54.075737   26.815948   45.798897
H   44.298775   89.529343   62.103210
H   85.910362   18.954491   48.047028
H   24.841818   25.138378   25.485666
H   25.691616   82.684029   88.531380
H   99.965370   29.240183   57.468010
H   66.323418    7.137144   78.680397
H   29.015860   68.701088   50.103687
H   14.879685   38.957840   80.942772
H   81.872665   44.503342   11.131677
H   28.919811   63.957809   12.741935
H   12.458055    0.845741   84.264565
H   11.419615   31.914583   95.401550
H   56.198978   56.207390   49.168098
H   12.087953   11.754242   69.607819
H   19.432180   95.150681   37.505882
H   93.189056   22.154108   17.626909
H    4.806411   17.422277   66.181877
H   78.814796   99.184433   81.738411
H   89.539688   84.266518   38.107185
H   91.963150   14.190660   68.394012
H   95.678551   22.160519   81.517410
H   19.627413   64.534454   84.910728
H   48.437553   78.525047   35.743999
H   39.355049   30.692924   66.969696
