100
TIME:    3.150, STEP:  3150
H    4.301000   33.150200   96.262100
H   13.647184   75.533676   76.701065
H   33.900414    0.528189   86.363441
H   82.005325    2.869333   67.502380
H   66.956787   25.243893   80.295578
H   79.174812   97.795464   90.700859
H   87.878807   74.041466   36.787041
H   72.302505   61.115932   18.970997
H   76.194923   83.433670    1.804978
H   88.760338   61.612694   31.040575
H    7.249695   92.989792   36.325680
H   35.614319   81.584000   68.708641
H   42.890617   71.127960   12.044918
H   99.111809   95.366676   96.955635
H   18.816521   88.656845   99.353798
H   74.869568   36.218658   71.563820
H   70.802864   90.319031   60.145275
H   68.457481   41.516243   90.338562
H   94.329674   10.498393   29.316576
H    7.654129   38.921474   30.799250
H   77.351257   42.625282   71.744537
H   64.373917   48.265656   51.026672
H   43.686989   69.003471   42.225845
H   26.372406   74.460999   73.127937
H   16.922256   36.348793   59.803261
H   32.215397   33.750256   93.921974
H   90.450790   11.534598   62.474796
H   66.753075    3.471044   70.895744
H   79.664291   34.884293    8.270555
H   21.778194   12.877673   33.804077
H   40.027584    4.522606   60.160973
H   64.650124   65.477531    7.652752
H   92.238983   38.012856   81.573830
H   11.195880   85.044106   39.045822
H    2.469965   20.804443   16.541969
H   46.434750   31.933561    9.811852
H   81.924721   89.175278   56.672970
H   33.796127    1.300401   44.727650
H   12.109017   12.784372   39.053513
H   66.497726   17.290564   85.869911
H   19.971510   64.265121   16.558332
H   48.517113   53.233337   50.790573
H   38.373631   82.389557   29.001759
H   78.210510   65.566437   88.724205
H   83.416145    7.609697   25.665178
H   37.448284   22.998219   95.959145
H   66.344040   96.144806   55.699272
H   56.407642   27.815485   63.482079
H   57.105057   71.565788   18.818773
H   91.945213   78.687050   63.348003
H   43.304295   65.531342   86.629929
H   58.216602   71.443451   67.271507
H   74.219673   40.273499   19.921814
H    3.749157   55.814354   70.817413
H   89.985245   34.642143   27.139833
H   97.507584    9.221334   85.393372
H   95.948830   98.654533   55.578682
H   91.500969   79.408844   32.419998
H   38.710251   71.863815   69.657005
H   51.150398   69.908356   74.017097
H   58.405220   32.082699   68.796036
H   87.114952   98.622330   52.828346
H   87.913963   92.332451   17.465530
H   59.345421   58.929718   41.619175
H   57.352901    9.258269   88.914604
H    7.835738   85.677071   32.436386
H   34.838570   57.264240   19.144411
H   62.773720   97.688416   16.790815
H   13.896786   23.447411   62.671535
H   94.204895    6.577847   95.100128
H   22.005795   81.073555   24.362518
H   14.235578   46.982819   87.250153
H    1.605108   62.492596   80.981926
H   60.870731   50.041878   15.994682
H   14.046245   33.128796   40.189732
H    0.123010    9.457701   83.974274
H   52.955105   53.526314   46.758915
H   79.973053   44.750156   88.402359
H   12.567687   44.266186   52.827316
H   45.043465   37.398006   49.545853
H   72.522018   61.869854   68.256912
H   77.672745   64.799454   23.376657
H   17.099211   59.835999   29.921726
H   66.863968   81.711151   75.712524
H   98.949844   51.851116   42.395195
H   78.795105   24.758358   60.528774
H   77.536095   74.322258   73.747437
H    6.662363   53.097717   62.983482
H   21.054737   18.785322    2.428662
H   87.836182   79.676346   36.822662
H   52.933594   43.522297   99.983963
H   11.360050   32.403587   93.546410
H   87.375793   22.032255   62.598778
H   51.687878    4.302939   39.206932
H    2.127525   67.572693   88.471123
H   54.098679   71.341316    4.747265
H   12.570386   48.452541   56.030296
H   18.429586   43.058044    5.633667
H   58.654686   50.428707   81.191429
H   34.869373   97.800972   94.289841
