100
TIME:    8.191, STEP:  8191
H   63.398186   70.867424   91.646927
H   74.261215   48.723255   94.573624
H   20.566706   63.197235   27.189945
H   82.851440   95.180351   91.185860
H   21.800665   29.302021   43.612961
H    0.995379   92.334175   89.928200
H   23.680252   14.432765   31.000034
H   76.089844   97.228142   56.124168
H   52.277458   98.761307   84.493134
H   51.034615   33.995625   28.431149
H   38.348160   95.825439   50.750488
H   43.214500   34.262936    9.884998
H   21.436974   66.194550   11.108309
H   49.511604   79.828926   80.579018
H   80.093880   38.372330   56.994553
H   72.180740   95.314049   53.116486
H   65.435524   23.742107   19.047400
H   76.224701   96.265083   15.586060
H   72.840561   21.975254   94.896469
H   71.834488   31.869226   74.013985
H   78.211174   40.777699   34.926334
H   47.659489   54.957657   21.738937
H   76.380547   28.007223   97.995270
H   57.996681   34.816376   98.738464
H   36.626411   36.573227   97.032326
H    8.986156   84.632797   20.072506
H   55.760590    1.985733   62.493671
H   41.408806   38.767887   37.523239
H   89.275978   92.243851   69.979179
H   15.072781   88.111954   34.549133
H   38.422894   56.557785   61.333229
H   82.942101   26.203510   40.982155
H   47.320354   69.189873   35.706924
H   24.191433   23.066322   26.676920
H   77.104271   39.496361   23.398855
H   84.667542   26.983683   93.675026
H   65.421562    4.562204   53.884060
H   25.443668    9.051174    0.458478
H   99.325768    2.950575   50.543404
H   91.692871   45.369591   82.485779
H   75.454865   37.235062   35.320889
H    9.921103   73.724167   98.126152
H   81.778961   12.623198   93.118294
H   56.319912   50.129051   81.607574
H   46.146873    8.719021   57.036789
H   72.393181   19.144154   16.438128
H    5.730343   70.292488    4.090894
H   56.687557   79.734634   75.390221
H    4.463637   54.070686   17.731148
H   97.712158   55.405697   10.817267
H   42.939159   78.855156   39.772659
H    3.210790    3.674443   36.348877
H   78.775688   69.502930   27.151667
H   87.007599   73.563110   93.263260
H   88.614967   76.425461   70.014908
H    3.797640    3.917586   13.785828
H   15.526483   53.198662   35.019798
H   16.137213    3.348064    2.572767
H   36.281353   84.867409   82.663376
H   18.497917   57.376659   30.639061
H   76.395035   97.652832   75.760628
H    8.203346   51.701401   24.737232
H   30.147163   48.344147   71.789001
H    5.500618   86.382889    4.751618
H   57.439507    6.642107   58.361206
H   98.163002   35.074364   30.500202
H   30.389662   31.547058   62.523724
H   14.557524   85.989006   57.779770
H   65.142242   61.233315   46.508217
H   96.379692   60.055363   84.470627
H   61.930935   38.085838   63.896523
H   98.758957   79.626366   56.442181
H   72.922516   13.151937   51.734318
H   49.890736   31.011791   16.472219
H   57.039658   40.376019   22.348639
H   19.296160   32.538727   44.778648
H   10.700219   16.848206   36.010109
H   16.806547   15.134228   66.800171
H   54.300026   29.459171    9.067837
H   97.831535   62.816917   15.259119
H   71.167564   14.022012   69.547806
H   55.941566   97.590393    1.745501
H   35.973282   44.100620   10.011952
H   13.677514   13.080618   15.296467
H   53.496826   36.524250   53.727394
H   62.779118    9.922130   10.591176
H   14.213227    7.799844   14.121819
H   87.762840   49.622650   10.650063
H   25.671692   38.109993   61.198982
H   42.144505   72.277481   17.026022
H   59.232166   15.722238    6.440991
H   84.349953   11.521080   89.599007
H   10.512360   73.289696   52.427185
H   38.894272   10.111318   79.105354
H   14.973530   16.029312    4.307621
H   70.464600   72.278442   44.373222
H   12.439507   37.743263   66.116768
H   22.466791   91.750648   14.446493
H   18.512474   72.172920   58.956257
H   47.984997   68.436844    8.674581
