100
TIME:    3.887, STEP:  3887
H   54.460114   65.563629   95.587357
H   93.145546   15.490973   23.190443
H   46.568726   53.550148   77.715477
H   82.129028   72.505608   27.102930
H   60.355545   84.317696   60.311920
H   67.749153   96.997017   63.689606
H   49.251881   23.806156   94.421394
H   14.375763   24.877048   51.303150
H   58.078056   12.574272   55.415150
H   68.619240   72.194923   59.902733
H   38.695755   22.644169   65.333031
H    7.483131   18.525614   16.248167
H   96.010773   26.538651   38.792824
H   62.619423   93.095039   53.043369
H   27.782177   22.824749   63.929745
H   45.237076   71.757805   10.386068
H   11.537774   39.065197   27.237295
H   84.201500    5.675750   64.788269
H    5.809808   41.418518   68.143051
H   87.796349   23.271475   80.977684
H   33.616623   69.254944   51.741837
H   35.030823   49.244034   88.264343
H   33.846977   63.009499   21.138657
H   57.897087   83.300140   18.390293
H   90.563263   77.901245   65.246193
H   28.833422   11.790654   24.842367
H   26.898127   80.899796   77.094826
H    4.568593   37.871719   95.253990
H   95.689453    1.751345   73.431831
H   50.037689   94.636131   92.394318
H   69.034966   70.609612    1.851875
H   11.184699   45.116737   39.424980
H   44.152737   84.091164   47.968613
H   42.336960   17.502266    7.998542
H   84.150421   65.092705   61.418045
H   10.521780   89.829681    7.269673
H   52.612373   62.185532   14.745564
H    3.336490   87.816277   96.737053
H   81.001556   96.727715   67.633095
H   97.081764   48.295715   43.855587
H   69.602905   89.556763   33.921734
H   82.279709   86.308853   85.416168
H   44.721844   86.809128   82.235497
H   31.147192   77.914246   60.783936
H   19.487551   78.529388   88.731506
H   27.940022   37.055378   98.950508
H   72.101852   36.226707   62.778458
H   56.447002   35.404800    9.083412
H   78.650070   10.528908   89.419922
H    7.399524   89.899040   11.803211
H   43.248066   94.378380   94.400726
H   94.034241    3.054308   18.887142
H   89.502617   44.546875   77.119240
H   86.679375   43.787048    3.339781
H   31.305038   99.235046   33.407146
H   98.429733    8.445379   60.304153
H   42.670170   77.388863   25.673605
H   36.621819    9.808266   13.434650
H   96.836967    3.003428   13.075630
H    2.517859   26.555716   53.055061
H    4.895212   97.809593   11.335407
H   60.957390   91.762436   19.479141
H   37.948696   42.041557   66.927208
H    9.952353   62.938820   21.607403
H   86.604317   50.396259   57.548588
H   62.560585   49.038490   76.013580
H   75.707077   82.745575   54.726910
H   11.864197   39.839432   52.023678
H   50.630875   70.491302   16.445972
H    9.137411   43.647789   93.548218
H   98.601753   30.928795   15.520565
H   53.465561   22.523361   41.209805
H   53.552032   26.039570   62.088531
H   44.644115    3.401877   72.201836
H   49.578465   34.180271   96.058510
H   17.547228   56.694038   34.383976
H   19.869009   89.647263   59.792713
H   14.598659   96.558769   29.104212
H   47.907524   42.101383   61.053566
H    8.899420   97.258980   86.052757
H   86.939041   69.494461   12.306006
H   32.970955   69.612625   61.749023
H   63.729618   72.138824    0.117553
H   17.569979   44.778267    8.400086
H   63.064728    5.749569   70.951385
H   61.835827   51.831696   11.708379
H   26.758673   20.736366    8.890568
H   18.523794   94.091789   55.319519
H   36.350937   77.750435   96.400154
H   22.675272   49.355148   63.165779
H   83.094635   83.318031   15.548135
H   65.895065   87.825737    7.591266
H   34.617638   44.146980   19.592203
H   22.920841   49.008644   88.898994
H   89.385735    1.555018    5.406735
H   14.971892   42.237373   66.680305
H   54.070435   90.747719   13.644009
H   21.134184   49.333160   93.838890
H   23.545525   53.605625   19.459572
H   80.647148   78.885658   23.292681
