100
TIME:    8.942, STEP:  8942
H   12.611342    1.997747   90.959366
H   53.519791   89.417557   41.926884
H   33.475666   17.227184   18.374840
H   82.977493   64.240105   50.021927
H   15.071161   89.497986   23.250927
H   89.352295   91.520561   64.303101
H   84.319542   65.145988   89.729210
H   17.062729   62.197468   87.168922
H   33.816444   26.555721   37.220066
H   30.522169   44.778873   57.836189
H   68.491974   26.042191   78.410301
H   14.548935   71.906898   56.427559
H   73.547958   20.740761   36.476158
H   12.327386   77.514137   37.730556
H   89.215523   71.289314   20.880409
H   41.985352   29.629051   90.776428
H    5.044521   73.413750   87.413887
H   92.283096   59.721214   89.552811
H   84.540558   53.482738   34.460728
H   51.600788   15.920675   25.145502
H   33.645760   66.013824   14.543425
H   19.658594   55.954620   57.784378
H   66.353615   21.902254   76.508987
H   88.217224   43.800507   42.963642
H    9.767734   77.015457    2.577422
H    5.444080   62.493332   49.400425
H   91.000267   70.770218   77.391403
H   78.041260   73.822037   62.349922
H    5.605880   60.380123   34.478111
H   43.868492   69.524887   94.252350
H   67.981514   23.902470    1.916509
H   30.360523    5.455716   71.458351
H    0.218538   14.243214    3.362934
H   55.923080   54.241730   95.039925
H   58.414070   82.635139   69.092377
H   49.950062   85.807892   91.314400
H   37.453255   77.059334   13.059846
H   94.403343   95.308479   53.452347
H   67.629204   86.587120   77.766312
H   20.957338   75.063759   41.572670
H   24.128874   63.001411   53.014126
H   46.630890   76.669220   36.465961
H   88.242035   17.128513   47.362286
H    8.368259   62.740067   55.034824
H   81.003204   79.095055   21.302660
H   62.699341   33.465771   19.489180
H   11.601792   11.134424   11.302898
H   56.733395   87.469696   21.857426
H   26.414139   91.874245   87.773987
H   13.476545   66.837822   58.309124
H   42.887592    6.350830   47.691071
H   39.710674   33.987492   87.049263
H   94.348946   73.857483   83.535599
H   69.612305   61.311806   26.401432
H   28.819923   42.239136   76.397766
H    4.733009    3.127607   88.220001
H   63.134369   31.529030    6.446043
H   60.216003   32.426033   83.229149
H   95.514732   16.600023   25.007856
H   68.937904   15.099484    9.278831
H   23.768950   62.724941   17.207928
H   81.548851   44.711197   90.757530
H   81.133514   97.096581   20.290680
H   57.071987   90.473877   84.364273
H   87.246536   46.661640   28.298529
H   52.027657   97.740410   74.905190
H   70.135025   57.508266   98.781113
H   62.680649   28.940479   93.681915
H    2.568807    7.271233   99.405090
H   11.632369   97.778946   82.877777
H   38.078297   86.985756   54.889473
H   36.915352   54.690819   11.491302
H   23.956711   76.001884   32.476879
H   33.360622   83.480385   71.850441
H   93.216827   41.481846   79.290146
H   37.052422   80.671745   94.246536
H   78.907059   51.848293   49.331604
H   52.085392   66.030907    8.282012
H   90.315224   27.253246   17.449167
H   61.001183   21.906328   50.559898
H   85.869911   21.791452   14.434512
H   12.297003    2.463148   38.916267
H   83.475670   56.660069   81.534081
H   65.343163   77.345436   46.703281
H   16.930038   89.544907   80.927094
H   45.492687   37.508224   62.742828
H   64.370811   53.195915   49.932289
H   99.840996   89.526894    2.863297
H   41.257572   96.296501   55.056770
H   75.746445   41.378876   43.871147
H   89.966148   56.271160   22.300804
H   39.916348   68.003296    3.910275
H   58.652927   95.818779   10.503169
H   11.475286   55.673695   29.742968
H    1.987552   48.760342   21.563509
H   32.494156   42.621643    5.582935
H   52.828270   80.841881   22.925873
H   21.017183   28.910969   99.368736
H   82.736870   75.415916   96.050529
H   94.634048   49.166630   36.328968
