100
TIME:    1.392, STEP:  1392
H   23.186937   94.367905   97.871597
H   62.549232   80.217735   65.807182
H    3.682089   74.050240    6.995424
H   81.710251   75.299400   63.864719
H   82.703033   84.332466   27.961449
H    6.430850   99.700035   16.599871
H   80.015083   55.333195   99.308983
H   10.477844    9.028254   80.385460
H   19.409981   52.458298   12.465173
H   36.799355   36.370415   62.201515
H   70.774582   22.252399    5.665346
H    2.709714   93.464638   93.845406
H   54.716293   77.489372   86.775414
H   86.158165    0.785506   63.173130
H   97.431618   45.686718   83.860519
H   45.555359   89.981621   17.492661
H   12.152637   74.052170    0.094122
H   30.890732   27.007874   51.288376
H   66.941399   36.749908   36.698109
H   55.013580   76.252792   11.106424
H   81.673386   17.639053   19.463371
H   95.821770   45.937218    0.728120
H   67.158821   83.301170   92.522629
H   89.709618   53.376591    3.691532
H   79.798332   75.776070   46.832748
H   40.276295   86.131638   58.699730
H   42.045174   84.613724   27.588949
H   15.089073   21.413555   12.784148
H   41.438736   75.385193   91.372337
H   54.368511   56.387985   94.049004
H   70.859077   46.872314   99.261719
H   53.648869   14.054332   70.399666
H   68.409378   66.636925   23.199308
H   36.917076   46.154182   13.108780
H   46.171486   53.695656    9.492477
H   93.583405   93.832352   15.854577
H   13.310269   53.558449   18.149298
H    6.458437   33.476589   20.671444
H   88.141220   50.792900    8.709779
H   32.082916   81.869087   47.554203
H   40.113037    3.946156   75.139450
H    6.516167   74.332619   68.198624
H   23.230947   71.847351    2.019497
H   90.471138   36.099937   16.836752
H   35.909996   76.968521   75.227249
H   60.128780   89.467049   88.823708
H   50.778309    0.830101   39.517769
H   56.313755    9.715349   54.706997
H    5.721786   17.164276   88.946579
H   55.084484   51.936527   86.306602
H   43.438419   35.255302   68.093887
H   72.781639   34.571613   82.679794
H   37.754913   30.080017   22.024048
H   44.456020   84.494057   93.242386
H   29.942795   80.535446   12.218218
H   95.307938   11.069021   45.239838
H   84.498383   49.381508   88.378151
H   22.406429   45.430687   77.700516
H    0.061958   97.583313    4.618340
H   67.159790   34.781826   24.017784
H   47.509411   13.838206    5.865215
H   49.506348   14.988607   32.371162
H   68.652451   12.229248   38.061623
H   38.625412   49.366623   89.347054
H   87.573112   49.667873   25.195101
H   15.832350   73.072639   28.491255
H   75.885666   96.488678   34.268871
H   84.210716   97.146469   32.748249
H   26.279007   49.766083   72.929573
H   58.583397   18.156279   98.801971
H   77.829720    0.688620   45.452579
H   59.189426    5.327396   58.538391
H   16.230690   49.451229   26.055531
H   99.553398   61.292458   20.477898
H   29.286186   30.624350    6.920607
H   58.569378   96.786400    2.266331
H   93.339378    5.897425   15.664959
H   97.379013   59.702507   91.314468
H   28.274813   49.424656   33.210167
H   31.259323   33.142410    0.999231
H   38.122341   43.682537   63.185146
H   45.766506   53.318375   70.379227
H    5.873974   30.489847   62.480991
H   45.927692   31.276834   36.286171
H   84.550262   61.815163   12.813578
H   19.253185   60.187298   38.448067
H   60.123253    2.143184   89.918945
H   78.363617   93.847870   81.273201
H   84.570015   16.668036   16.811028
H   43.267097   52.006058   73.976936
H   80.988899   48.594967   62.858227
H   81.280861    0.198227   60.043633
H   74.597527   69.338486   26.604120
H   81.770027   97.667320   20.674469
H   32.526463   25.042580   48.072746
H    8.895126   40.761955   95.550140
H   52.111771   47.564404   57.133972
H   11.976096   28.089722   33.764679
H   42.400261   42.850658   28.449841
H   25.689316   42.948757   63.616402
