100
TIME:    4.640, STEP:  4640
H    3.538564   96.509773   94.897964
H   72.329964   56.299911   70.673706
H   59.512062    7.724490   68.879768
H   82.255417   41.482964   85.828987
H   53.610992   44.673965   39.894424
H   56.071545   96.181236   38.260891
H    9.788538   74.653366   53.307049
H   55.191444   90.021149   82.164680
H   39.567879   40.176376    8.014912
H   48.040886   83.006889   89.386536
H   68.653534   52.942951   92.801315
H   78.745506   56.269829   62.648720
H   47.979080   80.999947   63.968262
H   25.335316   90.774086   10.345447
H   36.940926   55.563782   27.731255
H   14.959656    5.897659   47.880798
H   50.985970   88.870895   95.785851
H    0.291379   69.049706   38.679638
H   17.537956   73.008270    7.816543
H   67.505241    7.280451   32.245369
H   88.932549   94.290192   31.307007
H    7.221664   50.243652   24.139389
H   23.793343   56.885399   99.593399
H   87.935196   92.331177   62.467384
H   63.631012   18.183990   70.807289
H   25.394583   89.485596   54.093098
H   61.967491   49.598751   92.031654
H   41.032017   73.019226   20.144770
H   12.063489   70.069115   37.836220
H   78.911728   75.999565   52.255074
H   98.667336   38.133350   42.276909
H   58.729626   24.314331   69.716011
H   97.192116   28.997404   15.804799
H   74.152405   48.494385   76.275597
H   65.433426    8.171700    7.272888
H   75.985031   48.853565    4.839866
H   24.835714   34.609848   74.079208
H   72.210915   74.039925   49.872631
H   49.217907   80.320183   94.662140
H   26.157637   77.802422    3.099459
H   18.140560   15.394238   51.662090
H   14.604088   20.103201   20.792009
H   51.207874   91.324646   36.626038
H   83.063858   90.530121   34.409767
H   54.169376   48.819527   53.168110
H   18.225338   51.417713    2.009963
H   77.984665   77.176598   70.006554
H   56.487217   43.160461   55.674828
H    0.664506   48.164272   59.384521
H   23.192348    1.355116   59.135399
H   43.190617   21.681576    2.339806
H   30.627069   33.181728   69.455627
H    5.118899   48.913025   33.384777
H   69.237755   31.498634   36.566002
H   71.351196   65.227303   39.812748
H   99.371902    7.652893   34.670258
H   90.408005   55.661522   97.289955
H   80.551651   38.697197   94.038681
H   56.222672   34.821014   55.268578
H   52.825695   84.433899   31.637947
H   52.395630   62.788677   52.624138
H   34.231956   84.753616   85.408936
H   89.070045   90.657516   15.291740
H   61.661278   67.039215    1.161182
H   16.491228   90.254913   27.672388
H   16.302719   11.604654   20.536337
H   15.292555    8.780377   91.080856
H   59.849236   82.903458   88.021431
H   88.158829   16.385513   69.221069
H   24.393084   81.521484   91.962616
H   74.691338   79.694183    6.486777
H   91.378082   97.532196   96.340569
H    4.454266   88.793434   42.779808
H   28.064236   55.752140   27.460289
H   85.884163   35.254574   53.141689
H   35.350777    4.952722   83.716110
H   88.236923   24.381657   73.109474
H   49.975964   47.322735   70.690865
H   84.017616   39.889584   69.454674
H   71.970795   56.250553   21.180962
H    1.669604   77.284592   57.310680
H   89.469795   74.530289   98.783104
H   11.364130   84.716492   71.834686
H   69.373444    9.213657   39.624367
H   26.400118   58.651390   97.956551
H   44.503361   79.490334   63.998886
H   77.049828   65.987122   44.796692
H   30.642733   33.804451   47.489174
H   51.977158   35.823906   90.241585
H   56.100986   18.372719   90.086365
H   13.910636   23.978874   31.450113
H   21.611334   44.451935   21.939791
H   82.886574   66.742500   77.822861
H   95.700912   94.682755   39.669933
H   76.367714   34.106819   22.708485
H   77.166550   12.503309   27.787102
H   94.301292   33.960583   70.338242
H   23.897497   55.744507   81.786018
H   87.674316   56.851513   56.389221
H   27.419405   59.561024   50.754856
