100
TIME:    8.941, STEP:  8941
H   12.678967    2.089449   90.960281
H   53.547409   89.363373   41.863827
H   33.458477   17.155243   18.386578
H   82.977325   64.281303   50.076744
H   15.080122   89.417831   23.278038
H   89.367798   91.521645   64.204071
H   84.371956   65.078468   89.651009
H   17.141327   62.110958   87.260735
H   33.841026   26.651871   37.283016
H   30.549486   44.764515   57.797035
H   68.584991   26.001957   78.506630
H   14.587105   71.856773   56.498741
H   73.611725   20.801285   36.575531
H   12.376899   77.517220   37.654453
H   89.203377   71.378639   20.928497
H   42.025558   29.716515   90.859436
H    5.124936   73.347603   87.322853
H   92.261703   59.769875   89.587479
H   84.524979   53.440784   34.408047
H   51.627728   15.941912   25.077417
H   33.705101   66.113373   14.570566
H   19.562723   55.953293   57.869537
H   66.366966   21.910383   76.537598
H   88.310135   43.788544   43.037914
H    9.803498   77.094757    2.570040
H    5.448797   62.522812   49.494534
H   91.086494   70.811783   77.371567
H   78.125641   73.775360   62.316864
H    5.584135   60.289394   34.525383
H   43.830147   69.549637   94.172852
H   67.942162   23.812798    1.995625
H   30.297382    5.483343   71.550926
H    0.148098   14.316376    3.272846
H   55.880829   54.333374   95.082054
H   58.438957   82.710854   69.031540
H   49.863132   85.729568   91.317543
H   37.357346   77.095955   12.981051
H   94.444679   95.326775   53.381783
H   67.671410   86.608910   77.863220
H   21.051527   75.157372   41.493988
H   24.197214   62.967102   52.990566
H   46.715164   76.665298   36.414913
H   88.233429   17.122513   47.290058
H    8.432110   62.723274   54.937054
H   81.089951   79.134499   21.217085
H   62.712242   33.446697   19.485117
H   11.593974   11.080038   11.293295
H   56.733334   87.459396   21.795551
H   26.384911   91.957069   87.813873
H   13.455555   66.822594   58.379047
H   42.887661    6.447376   47.680527
H   39.662075   34.080288   87.114906
H   94.328209   73.851685   83.593674
H   69.635468   61.328125   26.357307
H   28.899548   42.151497   76.389267
H    4.731764    3.128659   88.254044
H   63.070976   31.557884    6.350933
H   60.290466   32.520470   83.254906
H   95.435860   16.557768   25.084627
H   69.003899   15.022618    9.307274
H   23.705866   62.771442   17.285892
H   81.584343   44.720505   90.802773
H   81.065628   97.164818   20.359253
H   57.003315   90.468430   84.391418
H   87.206848   46.741512   28.205400
H   52.089088   97.790123   74.846062
H   70.215256   57.473698   98.732834
H   62.749725   28.883286   93.634109
H    2.518965    7.343086   99.467804
H   11.612060   97.728714   82.879898
H   38.110058   87.053795   54.901466
H   36.997696   54.724022   11.418004
H   24.021912   76.051353   32.502522
H   33.382633   83.543678   71.909859
H   93.168655   41.480373   79.214325
H   37.028778   80.607658   94.313828
H   78.816238   51.934849   49.313866
H   52.038418   66.096291    8.226783
H   90.267265   27.256184   17.438005
H   61.050224   21.960806   50.646049
H   85.850334   21.781107   14.374742
H   12.221966    2.456656   38.999924
H   83.412422   56.643345   81.438850
H   65.274361   77.259865   46.794613
H   16.978729   89.607468   81.024033
H   45.515705   37.471489   62.673386
H   64.304024   53.268623   49.884605
H   99.824913   89.606911    2.873665
H   41.236820   96.352180   55.064949
H   75.834854   41.420021   43.835403
H   89.925224   56.217167   22.279686
H   39.842358   67.928085    3.891224
H   58.588825   95.788780   10.425838
H   11.378641   55.613026   29.675543
H    2.004844   48.849918   21.540533
H   32.411560   42.661133    5.634588
H   52.907646   80.784492   22.983387
H   21.019114   28.861488   99.388817
H   82.784508   75.411598   96.134285
H   94.571930   49.192287   36.425304
