100
TIME:    1.012, STEP:  1012
H   48.884682   29.215675   98.219498
H   73.119606   59.615620   41.836849
H   97.152008   46.711071   11.457329
H   81.646469   90.954918   84.692375
H   86.106659   53.873787   38.265099
H   12.323509    0.112232   78.967705
H   99.932381   29.672644   69.592491
H   40.345093   76.152328   15.275024
H   28.751106   88.993637   36.385147
H   47.184181   30.914467   47.320076
H    6.121246    6.962581   42.268410
H   17.214245   74.417091   20.893625
H   78.888458    0.479802   24.544603
H    4.973589    1.957042   34.253910
H   92.810341   79.628632    2.125537
H   60.833984   23.219715   49.035629
H   42.703239   48.922165   65.495430
H   22.770157   45.487183   64.462204
H   61.022751   20.807375   16.679338
H   65.255470   84.314331   85.228722
H    4.223083   55.470322   29.777168
H   59.384998   45.435661   33.085491
H   72.232368   86.391685    3.394747
H   25.015793   48.819096   31.914688
H   93.389641    5.915287   44.029251
H   42.018696   97.455795   94.318497
H   74.813538    0.408456   20.048208
H   47.150993    3.676018    0.223668
H   33.176102   40.908268    9.334991
H   39.797283   65.792892   63.839657
H   55.910954   12.794653   29.330566
H   29.655340   24.552361    5.578158
H   41.641819   94.439964   88.965904
H   20.861473   80.979012   29.116678
H   55.616982   82.420631   86.352478
H   60.544464   63.982494   17.162184
H   76.862511   67.474464   88.207039
H   22.163681   40.431698   93.856026
H    5.223726   58.904778   45.131905
H   67.873482   17.442942   17.655760
H   66.081131   90.906227   66.186813
H   40.668388   57.278557   50.345539
H   19.957785   69.568604   74.570290
H   14.736429   29.730978   79.681648
H   68.871086   91.963028   42.708260
H   65.026573   82.228569   87.286858
H   46.765858   80.332870   36.270699
H   56.293461    5.802919   31.194731
H   94.613518   48.634766    4.103982
H   47.114666   46.152683   12.884865
H   43.467411   71.941399   64.087234
H   54.313927   69.833740    7.625059
H   29.872072   27.876648   44.094772
H   53.255001   90.692482   76.473587
H   60.195633   47.222523    8.993616
H   94.832474   11.468382   58.175934
H   60.406715   60.346169   52.237099
H   50.702820   81.316612   87.488113
H   70.090340   81.527710   33.791325
H   92.237610    5.572691   34.825890
H   23.538561   31.508736   35.492081
H   62.993286   18.525803   49.566139
H   42.876457   38.143135   64.130959
H   12.531065   47.299515   99.662300
H   72.491631   80.017754   89.806801
H   39.176460   91.963631    6.023010
H    6.373621   83.349640   15.921654
H   10.460090   75.414291   14.582053
H    7.339049   77.070465   96.760750
H   50.886101   99.043114   99.602142
H   89.896065   26.544867   50.010075
H   90.523209   17.939400   30.715124
H   41.007919   68.247200   35.799641
H    7.916732   85.338501   43.062431
H   10.965081   30.083654   78.114189
H   49.584850   72.433372   27.835239
H   58.838825   38.833122    8.941059
H   79.525925   84.548897   70.330276
H   10.059328   50.537937   28.972618
H   49.895187   53.839584   33.736389
H   30.685970   39.751263   40.473049
H   17.253922   50.836685    2.154274
H   81.828697   24.147913   26.287754
H   19.785879   98.759743   70.995033
H    3.052915   85.582825   49.650368
H   27.999981   46.227795   12.059713
H   34.743919   29.772285   71.799133
H   72.246368   24.270977   85.221870
H   76.684273   37.825127   19.920387
H   76.862869   67.641953   60.391430
H   65.437752   28.077265   54.833324
H   53.164707   71.618217   52.804405
H   50.215508   57.952087   97.205620
H   45.041847   74.618919   95.052879
H   39.095982   59.081734   39.340446
H   77.508621   55.768059   15.178047
H   82.274734   25.756849   78.987915
H   10.580871   24.854248   39.844238
H   60.502678   41.212627   60.279827
H    2.090058   52.710262    0.215531
