100
TIME:    3.245, STEP:  3245
H   97.876617   24.438194   96.175125
H   11.004410   80.684052   82.693649
H   35.533371    7.362639   85.248711
H   82.021271   98.955193   62.295231
H   66.105881   32.858562   77.719666
H   77.702034   97.692543    0.108671
H   82.899483   80.455879   44.216164
H   64.835693   69.334824   10.248240
H   73.859642   74.299835   95.825279
H   86.164131   62.976753   34.760933
H   98.413040   96.812347   27.174982
H   31.988182   86.345886   61.946327
H   36.848022   65.380356    2.602820
H   94.407906   95.073860    4.185109
H   19.972202   80.170975   94.787605
H   71.049911   27.909637   63.678078
H   63.163551   96.602982   68.793503
H   70.486900   36.896416   87.045105
H   95.809700   14.484027   34.321270
H    5.094887   36.904377   37.267296
H   71.713821   33.167465   69.165726
H   73.481659   48.391769   42.936539
H   42.418602   68.230843   39.507874
H   17.545883   75.600372   66.072807
H   13.524659   28.814575   60.504860
H   31.779612   30.919802   85.017174
H   82.259186    7.585395   64.359840
H   58.737347    7.905319   74.035545
H   81.729950   43.503525    3.780021
H   25.420639   10.526265   41.356415
H   43.766788   13.041274   52.644875
H   70.648506   62.852654   98.858177
H   98.930267   31.062145   90.132179
H   15.209962   76.337898   35.043518
H    0.108350   13.623139   22.326538
H   54.694485   39.396748    9.485333
H   91.036812   85.696274   64.158623
H   29.869926   99.561852   51.431255
H    8.098922   10.714727   29.847284
H   57.549961    8.396842   93.343971
H   13.479181   67.525238   18.796492
H   39.979057   57.497292   55.253845
H   39.191921   82.959244   35.863529
H   72.143997   67.158081   98.013145
H   75.175255    3.861616   33.794735
H   36.222660   24.810200   96.344734
H   67.086227    1.311202   56.611786
H   56.412716   28.793592   69.360146
H   59.881737   63.697472   15.029149
H   93.936943   80.132286   56.703831
H   43.297047   56.359818   87.631592
H   62.833530   62.628410   61.035046
H   76.189659   40.824341   14.404331
H    1.549412   54.264023   75.009613
H   82.421310   42.967834   27.947615
H   97.626450    9.121313   82.159348
H    1.971672   95.913368   64.613945
H   84.426994   70.437363   29.972797
H   46.202431   75.877716   62.363979
H   44.881668   77.209915   71.315071
H   64.397804   27.665089   61.388912
H   83.743217   97.738083   48.529602
H   94.363167   85.849907   10.951096
H   65.869072   59.446495   39.039639
H   61.123997    1.670674   97.761421
H    1.999815   80.954323   38.053528
H   27.216423   60.548275   23.731260
H   56.211449    3.121640   21.332365
H   18.631775   16.621315   56.713017
H   96.129944   11.356195   94.900085
H   18.988846   74.609856   23.222782
H    6.402545   43.829971   94.205261
H   95.410950   57.793766   78.546623
H   58.779705   44.029724   10.348549
H   18.626493   33.264332   47.391270
H    2.369010   15.546320   77.581604
H   61.580860   45.291946   48.438984
H   84.436325   38.537960   93.648407
H   17.123144   43.987141   53.887688
H   40.384499   32.223713   41.361496
H   74.380386   62.852673   73.934937
H   84.800354   65.419876   15.432570
H   23.109915   61.421844   38.970036
H   73.400146   89.840424   67.035309
H   94.324219   45.908543   33.185982
H   76.609131   28.247871   67.125839
H   83.880928   67.414986   78.277390
H    8.191313   45.491745   61.995590
H   23.026535   13.496063    1.651423
H   79.437286   75.768265   40.218315
H   56.821381   48.651653    1.990228
H   18.389570   39.547867   95.356941
H   93.465500   24.882864   69.945274
H   60.870274   10.065460   45.611923
H    0.484853   59.063206   90.654198
H   61.945282   67.589790   99.840248
H    5.029826   53.904430   50.566811
H   18.778212   43.866913    4.113596
H   54.129082   50.838215   73.234657
H   40.769909   95.362770   85.138611
