100
TIME:    6.600, STEP:  6600
H   70.991287   16.769060   93.103531
H   18.199791   62.509930   94.256264
H   93.215515   48.734108   45.869328
H   82.584396   60.730499   78.395020
H   36.055450    1.776515   86.752716
H   25.670849   94.057823   32.366047
H    7.064925    7.000419    6.581733
H    1.139310   59.584805    2.203057
H   91.387276   51.730331   84.640572
H   94.489967   11.150572   66.134438
H   86.339111   31.807699    4.004459
H    3.935525   54.514469   23.133617
H   22.907089   62.475384   69.212334
H   28.288013   84.732826   59.504101
H   60.769600   80.488304   33.508541
H   36.152832   34.468971   85.183105
H   93.374275   18.510098   74.212379
H   42.205219   73.683105   70.733925
H   48.061825   55.233101   11.076571
H   14.703041   65.650917   65.691307
H   72.623367   99.165741   78.106468
H   95.128769   52.845581   57.227310
H   97.622688   40.944847   43.517349
H    5.822430   15.783419   16.899759
H   93.531075   62.748093   85.282387
H   16.459799   31.546921   69.781990
H   92.953407   68.124710   30.921782
H   75.652390   64.505394   84.933945
H   54.681633   47.895428   45.186066
H   54.066151   27.490044    8.069958
H   75.808113   13.890685   87.208015
H   82.485352   70.158234   88.269020
H   35.252018   85.595238   92.377075
H   56.967690   68.872116   93.704498
H   16.700562   59.957436   26.600306
H   46.364132    2.368706   98.676033
H   12.825227   62.829224   28.519384
H   91.202827   38.170391   88.185432
H   66.486206   37.612663    4.723583
H   41.547138   94.313110   57.309635
H   84.188675   82.644783   97.838844
H   44.001984   67.485046   16.902111
H   68.086884    3.079334   78.198570
H   57.910107   23.423483   26.048986
H   84.154381   71.488144   20.890196
H   92.931297   88.801743    9.974447
H   93.297165   83.768082   88.818199
H   56.591892   63.347839   76.948532
H   57.952026   85.838051   81.198013
H   64.307373   31.189451   22.059587
H   43.048405   32.456512   23.000694
H   25.884693   51.309181   40.787392
H   45.776905   60.277771   19.550543
H   23.851814   99.514938   23.055721
H   15.293045   36.997307   56.486027
H    1.816051    5.591164   67.947220
H   14.663978   99.105965   83.702309
H   34.605621   53.599098   43.555283
H   10.805577   17.636761    4.801298
H   23.487274   35.086269   75.890892
H   76.033562   71.639786   99.808853
H   64.671028   66.510208   96.723755
H   22.134043   56.911049   80.888641
H   96.249496   77.716095   47.951389
H   94.287567   33.712910   10.198100
H   95.899170   14.167421   36.427353
H   58.038254   76.540131   85.709732
H   24.458778   94.997780   81.720764
H   85.845131   75.552429   46.292889
H   64.096397   80.103447   87.835419
H   12.452263   46.337418   82.978035
H   29.767241   32.483978   39.842979
H   76.658676   91.844086   92.523010
H   84.917168   31.705742   11.004240
H   80.382927   38.050900    1.722372
H   81.686317   30.570469   51.832436
H   66.203705   54.554729    7.793601
H   42.060329   19.162043   78.933510
H   78.006371   34.132442   91.316856
H   75.854965   49.486671   52.325249
H   40.024529   97.561691   74.455719
H   36.555748   87.272781   34.848675
H   35.340073   17.493322   58.494873
H    4.219571   76.935326   60.608128
H   30.964510   36.051559    7.956396
H   99.388840   51.484398    0.107088
H    7.953874   23.479027   38.256905
H   62.175163   76.935791   27.146103
H   92.650986   26.694479   74.211311
H   82.810257   37.734554   60.148926
H   94.121819   29.813248   72.841721
H   66.632065   91.862747   59.279259
H    8.526227   25.551861   29.392710
H   85.131355   13.587197   71.826874
H   42.482826   58.542732   67.747223
H   39.054550   35.104156   26.550552
H   38.725060   46.440063   57.617371
H   25.537798   13.027604   46.385872
H   94.304436   65.302605   92.217522
H   49.161663    9.268642   61.942486
