100
TIME:    5.762, STEP:  5762
H   27.661539   93.617485   93.870743
H   41.342110   17.097380   41.418201
H   78.804718   88.445709   55.708820
H   82.443741   95.255035   24.327660
H   43.561340   34.607132    9.474253
H   38.668697   94.965691   49.376888
H   50.982922   50.416317   41.048985
H   67.004456   87.088242   79.146477
H   11.986977   32.300674   37.389465
H   17.380869   99.117149   33.323338
H   64.287827   98.089340   84.724297
H   35.921867   12.509750   82.783867
H   76.381760   13.150764   52.480400
H   69.781105   87.315773   95.730064
H   50.585854   55.342300   73.799408
H   69.846222    7.763446   54.744843
H   60.761360   63.080830   97.925934
H   24.284430   14.459267   99.785683
H   35.012829   20.075617   66.925018
H   37.278252   83.450233    8.636316
H   22.351463   82.592102    0.854174
H   14.788895   51.733124   28.590729
H    8.811999   47.760246   67.492722
H   83.685356    5.758517   79.137497
H   23.501793   29.204369   79.093544
H   20.279875   56.321472   48.584717
H   65.216248    2.956498   14.292627
H   46.360645   25.390373   57.236031
H   36.460350   71.865753   84.799774
H   21.933762   48.230339   41.450699
H   42.826683   38.745243   53.507835
H   29.573307   93.315247   65.846855
H   76.225334   46.906685   16.883421
H   21.559917   45.669762   29.006552
H   37.544357   23.356787   75.593140
H   73.518494   36.733650    1.310786
H   32.450089   93.517700   62.488384
H   25.838902   53.508236   29.049961
H    1.854952   55.872307   85.931923
H   20.477785   72.764763   91.376549
H   41.459366   53.889374   78.095924
H   14.624156   64.198822   74.118645
H   60.872318   98.052948   17.669685
H   11.421291    9.357931   44.113571
H   56.844112    4.554278   49.180523
H    3.747702   72.818161    6.569945
H   86.750290   38.195694   80.775261
H   56.547138   54.716705   25.097799
H   33.458786   55.240128   14.624934
H   46.724285   18.432676   80.662033
H   43.105946   13.359476   14.167836
H   85.155312   29.068569   95.796486
H   28.393162   55.418762   68.222374
H   43.255882   13.188737   86.078087
H   82.015709   63.560123   49.357349
H    0.772302    6.472658   96.474716
H   61.536179   23.286919    4.001537
H   97.005524   32.738228   65.139511
H   44.712929   82.227470   69.132256
H   78.785782   70.675430   99.725609
H   23.172123   10.612843   65.143852
H   94.413277   74.310196   34.642113
H   65.243950   14.094313   38.352814
H   38.705795   73.151184   70.703735
H   61.028358    0.642303   32.159443
H   47.377129   55.826958   86.877739
H   25.272720   47.568722   45.252090
H   82.344917   47.072605   41.659519
H   44.080181   35.765755   98.849060
H   47.121796   37.953987   89.600006
H   39.063866    3.354137   93.028511
H   98.864395   60.295410   78.489090
H   31.298695   33.293961   14.009041
H    3.367521   84.741783   60.794945
H   39.980236   36.855328   38.197159
H   61.878777   76.863701    8.220518
H   90.107170   27.133879   92.951973
H    2.689570   73.958244   32.653511
H   37.821415   36.593914   81.969658
H   16.951126   95.135780   24.519604
H   23.625376   88.892197   24.370058
H   73.665268   81.838226    4.949317
H   82.334373    3.480103   78.687668
H   46.565765    5.225631   37.147175
H   71.767479   88.468330   89.191193
H   18.677296   20.701195   41.914062
H   51.985680   84.408440   98.297821
H   48.697807   43.992779   35.834778
H   75.260849   73.353386   81.065071
H   56.901211   72.212814   30.195501
H   59.827446   84.562744   55.144695
H    4.628549   28.836451   43.314857
H   54.808746    0.406536   64.588882
H    4.143175   62.747021   15.321738
H   56.970345   33.604885   48.490208
H   69.839157   68.196564   69.834091
H    5.242201   98.350258    5.811261
H   27.155336   71.560928   63.206993
H   34.224548   61.688015   62.410294
H   97.111908   30.772953   42.669254
