100
TIME:    8.340, STEP:  8340
H   53.321770   57.203331   91.510513
H   70.146072   56.797802    3.968238
H   23.127871   73.917068   25.441010
H   82.876450   89.041740   83.019234
H   20.465517   41.245029   39.572845
H   98.685059   92.172752    4.683799
H   15.871148   24.494402   42.652027
H   64.378738   10.118495   42.443024
H   48.614754   84.435608   75.114700
H   46.964943   36.135044   34.265450
H   24.488541    1.820762   36.398643
H   37.527191   41.731579   99.279274
H   11.935646   57.176201   96.301102
H   42.133904   79.369667   91.917259
H   81.903633   25.062912   49.829430
H   66.189911   82.282005   40.748322
H   53.453865   33.596851   32.611458
H   79.409958   89.014702   10.421385
H   75.161865   28.226406    2.746699
H   67.819382   28.705000   84.158607
H   69.369301   25.943859   30.882650
H   61.944263   55.155457    9.050201
H   74.391182   26.795984   93.732346
H   44.151840   36.598846   87.673050
H   31.297264   24.756401   98.132729
H    8.283627   80.240280    6.050694
H   42.911568   95.792313   65.449875
H   28.837015   45.722706   42.448906
H   92.515800    5.762299   62.935692
H   20.785713   84.424240   46.394379
H   44.287540   69.918861   49.544823
H   92.350090   22.087231   27.188469
H   57.816242   58.288155   49.130020
H   30.487488    9.411461   20.400190
H   73.396095   28.214958   32.464672
H   97.620010   38.654755   93.206673
H   79.713158   99.105232   65.624718
H   19.285164    6.324324   10.972655
H   93.037102   99.704430   36.104027
H   77.658188   31.420191   94.208252
H   65.271591   42.347160   38.831264
H   97.364014   74.308472    5.732976
H   83.061249   13.516991    3.881021
H   46.806202   52.631104   96.176544
H   33.222824    2.840843   69.787529
H   70.469749   21.985535   17.043463
H    6.895116   78.395454    5.521815
H   56.696651   81.269287   84.609505
H    8.818756   41.730942   11.787292
H    0.840343   57.673573    0.399068
H   42.928928   64.470345   41.343689
H   10.452456   89.848755   26.567707
H   81.865456   70.366882   18.497931
H   83.556335   71.132675   99.838394
H   76.751534   89.482513   71.281281
H    3.983219    3.760853    8.713516
H   24.972000   48.899361   49.190895
H    5.042529   89.276894   98.734764
H   48.033382   91.162895   71.225098
H    8.665696   68.829239   26.401146
H   85.793930   90.723022   64.142738
H    2.915032   50.314529   17.995560
H   40.263264   38.176788   61.571625
H   15.732239   87.194550    0.705973
H   63.354172   94.741730   72.236740
H   89.009651   27.667107   39.310246
H   18.434717   36.697857   69.717270
H    4.264835   94.510307   64.902832
H   72.567688   50.527122   37.162750
H   99.405800   67.539322   84.154602
H   57.198521   27.947128   62.109505
H   86.488556   74.679100   67.363571
H   63.207596    5.781669   47.913601
H   46.611126   21.581635    7.619541
H   64.217285   40.595417   33.645954
H   22.819040   42.088814   34.753387
H   24.232903    3.951484   38.653122
H   23.806269    5.392025   75.030457
H   61.444687   29.021511   10.730661
H   90.524315   54.700310    2.422833
H   74.084541   15.563485   78.453339
H   67.122116   98.556656   89.279671
H   45.398323   46.592442   24.202374
H   23.928425   25.831244    1.687857
H   46.241898   27.203793   39.283470
H   59.349453   15.395156   20.938293
H   24.164598   96.966209   21.226692
H   90.159172   37.698967    9.105179
H   28.764301   29.813925   59.980354
H   28.970495   66.147964   22.352404
H   65.329857   23.767239    9.587668
H   95.374443   22.727001   92.438683
H   20.063419   77.759514   63.949585
H   53.293861   19.150990   89.152214
H   12.397018    2.682437    7.731318
H   82.771378   66.394470   36.677223
H    0.612738   46.294121   57.547722
H   22.179186   99.123802   11.455057
H   11.414605   72.816338   46.475552
H   57.239521   64.612717   94.321060
