100
TIME:    8.454, STEP:  8454
H   45.612297   46.748924   91.406143
H   66.997574   62.975643   11.156356
H   25.087420   82.118820   24.102898
H   82.895584   84.345085   76.770943
H   19.443995   50.382633   36.481750
H   96.917725   92.049248   15.973601
H    9.896611   32.192566   51.566975
H   55.418564   19.980730   31.975571
H   45.812416   73.475006   67.939255
H   43.851234   37.771915   38.729012
H   13.884537    6.407695   25.417776
H   33.175827   47.445843   91.164497
H    4.666100   50.276466   84.971725
H   36.489220   79.018288    0.592207
H   83.288277   14.879868   44.347389
H   61.606323   72.311180   31.285397
H   44.286690   41.136723   42.989326
H   81.847000   83.467430    6.469846
H   76.937897   33.009167    8.752414
H   64.747421   26.284048   91.920265
H   62.604378   14.594479   27.788511
H   72.873558   55.306793   99.342117
H   72.869118   25.869265   90.470779
H   33.559143   37.962616   79.206894
H   27.220306   15.715340   98.974648
H    7.745914   76.879562   95.322876
H   33.080772   91.053909   67.711227
H   19.218004   51.043842   46.217537
H   94.994591   16.105158   57.546715
H   25.156647   81.602768   55.457184
H   48.774586   80.141914   40.525505
H   99.548149   18.937862   16.634911
H   65.846451   49.947243   59.400040
H   35.304306   98.964142   15.597860
H   70.558968   19.583549   39.400936
H    7.529626   47.584488   92.848335
H   90.647667   94.930428   74.607506
H   14.573355    4.238008   19.016983
H   88.225639   97.220421   25.056725
H   66.920242   20.747911    3.177277
H   57.480362   46.258430   41.517056
H   87.756744   74.755524   11.552873
H   84.042328   14.200832   12.115171
H   39.527256   54.545425    7.322726
H   23.334244   98.343712   79.542656
H   68.998131   24.159477   17.506605
H    7.786474   84.595039    6.616528
H   56.703609   82.443451   91.663185
H   12.150772   32.289795    7.239582
H    3.233244   59.408726   92.428642
H   42.921101   53.464516   42.545685
H   15.992987   79.270844   19.083935
H   84.229439   71.027893   11.876951
H   80.915771   69.273148    4.868624
H   67.674812   99.472473   72.250183
H    4.125206    3.640936    4.832687
H   32.198761   45.609962   60.033211
H   96.553894   78.511116   95.798485
H   57.024868   95.979576   62.473511
H    1.143003   77.591110   23.158714
H   92.985031   85.421021   55.254742
H   98.868919   49.253433   12.837368
H   48.003178   30.397646   53.754303
H   23.560432   87.815552   97.611221
H   67.878738   85.637177   82.852921
H   82.006416   21.999809   46.050816
H    9.287981   40.638699   75.221054
H   96.389999    1.030019   70.352692
H   78.248901   42.335808   30.012527
H    1.721117   73.265762   83.912811
H   53.577747   20.190254   60.742256
H   77.100464   70.893944   75.720139
H   55.774704    0.142740   44.990368
H   44.101894   14.366615    0.846247
H   69.708893   40.763279   42.289539
H   25.514399   49.395592   27.082773
H   34.586746   94.084717   40.675293
H   29.161760   97.938255   81.327454
H   66.911537   28.686657   12.002890
H   84.933556   48.490288   92.601646
H   76.316322   16.742868   85.266968
H   75.676987   99.295944   79.741982
H   52.609428   48.498936   35.059475
H   31.771404   35.586647   91.275322
H   40.691147   20.072704   28.232563
H   56.725414   19.582573   28.854767
H   31.778399   88.677483   26.662636
H   91.992607   28.576313    7.923180
H   31.130459   23.466917   59.047981
H   18.891386   61.457794   26.427622
H   69.995201   29.922466   11.995139
H    3.809290   31.300571   94.611320
H   27.371067   81.179375   72.765381
H   64.311020   26.067249   96.839073
H   10.425728   92.471359   10.350790
H   92.187302   61.892639   30.789009
H   91.563866   52.836388   50.991539
H   21.959139    4.764578    9.166307
H    5.984057   73.308617   36.926556
H   64.320206   61.687565   83.339584
