100
TIME:    3.499, STEP:  3499
H   80.699371    1.145280   95.942581
H    3.938605   94.454529   98.715927
H   39.899384   25.635750   82.268272
H   82.063904   88.490715   48.371662
H   63.830826   53.217785   70.832489
H   73.764290   97.417366   25.263445
H   69.586342   97.605995   64.079292
H   44.871796   91.310226   86.927315
H   67.615837   49.878845   79.837883
H   79.222694   66.623817   44.708000
H   74.786575    7.032450    2.708459
H   22.293037   99.077667   43.866035
H   20.691353   50.013077   77.356438
H   81.831154   94.290962   23.515324
H   23.062130   57.482437   82.579048
H   60.837357    5.693714   42.594093
H   42.738441   13.403104   91.916122
H   75.912926   24.544456   78.239441
H   99.766823   25.140352   47.702236
H   98.251793   31.511206   54.560814
H   56.641098    7.880250   62.271286
H   97.832886   48.728958   21.306076
H   39.027336   66.165077   32.240875
H   93.946465   78.646698   47.207890
H    4.440427    8.670456   62.380714
H   30.613985   23.351465   61.208778
H   60.357098   97.026993   69.398293
H   37.306484   19.761185   82.430382
H   87.252869   66.548630   91.773262
H   35.159698    4.239343   61.548981
H   53.764240   35.817760   32.549202
H   86.686287   55.835640   75.344109
H   16.821985   12.478977   13.014508
H   25.942799   53.060249   24.343315
H   93.794769   94.422417   37.792648
H   76.781807   59.350956    8.608964
H   15.398976   76.394516   84.172905
H   19.372505   94.914848   69.355156
H   97.377411    5.181150    5.233449
H   33.627003   84.618713   13.327898
H   96.120422   76.241760   24.780622
H   17.150993   68.896927   67.187225
H   41.379772   84.482407   54.209309
H   55.924057   71.413635   22.847948
H   53.142673   93.839569   55.529842
H   32.945728   29.654865   97.375679
H   69.070602   15.125184   59.051559
H   56.426281   31.408743   85.076241
H   67.306564   42.661934    4.896531
H   99.262199   83.996391   38.939411
H   43.277668   31.838051   90.309723
H   75.177734   39.058144   44.359707
H   81.456779   42.297119   99.652321
H   95.666557   50.118927   86.218231
H   62.197739   65.228210   30.107367
H   97.944260    8.853888   73.512589
H   18.073824   88.584358   88.771385
H   65.513420   46.450455   23.429592
H   66.234367   86.609619   42.863232
H   28.121063   96.731979   64.090706
H   80.420082   15.853053   41.585857
H   74.728264   95.373886   37.036118
H   11.606977   68.517632   93.533531
H   83.309868   60.828194   32.142773
H   71.205330   81.384987   21.415892
H   86.396156   68.327187   53.071991
H    6.836867   69.329926   35.994732
H   38.666008   17.648779   33.475033
H   31.291855   98.370514   40.781818
H    1.276651   24.131754   94.365234
H   10.922783   57.327965   20.175488
H   85.458481   35.400253   12.801715
H   78.849945   45.230579   72.035393
H   53.187267   27.955368   95.255913
H   30.872839   33.626713   66.645912
H    8.374167   31.825365   60.490025
H   84.641670   23.276234   52.930958
H   96.369705   21.929098    7.675570
H   29.302633   43.241062   56.722786
H   27.927895   18.390240   19.479111
H   79.349075   65.480423   89.116180
H    3.857645   67.078690   94.192871
H   39.180637   65.661896   63.162357
H   90.875824   11.575794   43.836861
H   81.956757   30.019978    8.563601
H   70.764526   37.578308   84.764297
H    0.845015   48.947121   90.389053
H   12.279242   25.155777   59.354279
H   28.298500   99.354012   99.573494
H   56.980686   65.319290   49.297218
H   67.216095   62.365932    7.354287
H   37.184235   58.649414    0.197706
H    9.747132   32.504494   89.587486
H   85.419411   25.472466   62.736847
H   96.093559   36.310719   96.491051
H   82.924622   57.559395   86.720894
H   84.868408   68.481056   35.959175
H   19.710325   46.029572    0.049378
H   42.029045   51.933109   51.959663
H   56.546078   88.843788   60.670845
