100
TIME:    7.812, STEP:  7812
H   89.028801    5.623565   91.993912
H   84.728592   28.184643   70.677933
H   14.052065   35.930008   31.638580
H   82.787827   10.795673   11.959831
H   25.196779   98.923592   53.889496
H    6.873174   92.744774   52.395111
H   43.542850   88.841034    1.361730
H    5.878502   64.438072   90.921623
H   61.594002   35.201523    8.348942
H   61.386330   28.553743   13.590317
H   73.601822   80.575455   87.258026
H   57.680878   15.265543   36.861885
H   45.604469   89.136032   48.771427
H   68.277702   80.997108   51.737560
H   75.490547   72.226486   75.221710
H   87.419159   28.463013   84.576447
H   95.912361   98.674835   84.545532
H   68.122604   14.706900   28.723751
H   66.936035    6.074718   74.927490
H   82.047409   39.916409   48.209877
H    0.701575   78.508301   45.211544
H   11.324388   54.454529   54.014313
H   81.440742   31.088160    8.839141
H   93.210358   30.282442   26.886417
H   50.181953   66.630539   94.233315
H   10.773129   95.805710   55.739174
H   88.441513   17.740820   54.972775
H   73.387199   21.077444   24.995001
H   81.035088   57.857655   87.895164
H    0.540663   97.492111    4.420562
H   23.506258   22.573109   91.318504
H   59.011715   36.673779   76.068108
H   20.623377   96.919746    1.563609
H    8.176990   57.799507   42.643524
H   86.536476   68.192009    0.339219
H   51.721333   97.297791   94.866341
H   29.071777   18.443045   24.020231
H   41.107750   15.987257   73.711769
H   15.323995   11.207369   87.271751
H   27.390697   80.850311   52.667114
H    1.357224   24.231802   26.391813
H   41.861198   72.237915   78.775963
H   78.517303   10.349724   65.741188
H   80.520706   43.766502   44.551105
H   79.022194   23.671360   24.604191
H   77.285667   11.916747   14.898382
H    2.767599   49.681587    0.450991
H   56.664425   75.831055   51.939831
H   93.384285   85.460335   32.849648
H   89.754639   49.637074   37.317223
H   42.965183   15.445314   35.776550
H   84.791489   38.843128   61.227692
H   70.916481   67.305359   49.162392
H   95.786316   79.745224   76.538589
H   18.791893   43.211418   66.793732
H    3.325596    4.316257   26.687881
H   91.499207   64.134468   98.973549
H   44.357834   39.140663   12.335357
H    6.389828   68.854057   11.758644
H   43.506851   28.244389   41.418724
H   52.487774   15.277786    5.311772
H   21.654793   55.229080   41.886345
H    4.416739   74.206085   97.778168
H   79.476372   84.318329   15.042003
H   42.394821   36.912754   23.066698
H   21.444382   53.915642    8.090508
H   60.797180   18.444042   44.226055
H   40.737572   64.314018   39.661377
H   46.251984   88.465843   70.278809
H   88.682411   41.020351   85.274475
H   73.966026   63.873779   68.442024
H   29.968506   92.210350   28.662977
H   97.633621   31.899240   61.452785
H   58.232830   54.997181   38.990540
H   38.782471   39.817951   93.612885
H   10.335732    8.248310   70.279854
H   76.279015   49.652733   29.287859
H   99.002289   39.914730   45.867924
H   36.126694   30.572414    4.838236
H   16.417580   83.462517   47.910378
H   63.747871   10.101083   46.895477
H   27.503036   95.132584   33.452564
H   12.000726   37.762363   73.919022
H   87.602364   80.648804   49.911114
H   71.950638   60.231991   90.467308
H   71.500412   96.001221   84.272110
H   88.900597   35.356438   96.049568
H   81.667473   79.950500   14.579666
H   17.805256   59.212456   64.298714
H   75.653564   87.868668    3.478256
H   43.721943   95.257607   98.436935
H   56.307789   83.016647   82.375938
H   86.217834   61.919628   23.118532
H    2.266011   87.117882   53.549923
H   21.527206   49.978889   95.598663
H   39.160782   87.245056   63.948952
H   42.522240   15.994159   87.913200
H   23.198351   72.996117   22.055582
H   36.567253   70.536308   90.700050
H   24.444963   78.163986   45.185917
