100
TIME:    1.684, STEP:  1684
H    3.440691   67.589951   97.604263
H   54.426735   96.048363   84.226494
H    8.701300   95.058235    3.567203
H   81.759262   63.269371   47.858097
H   80.087616    7.737538   20.044277
H    1.902665   99.383690   45.518131
H   64.710213   75.050056   22.143852
H   87.527214   34.289242   53.575447
H   12.232063   24.383774   94.084831
H   28.819880   40.563103   73.634850
H   43.613449   34.001728   77.537598
H   91.565826    8.100874   73.060188
H   36.143265   59.823051   57.752335
H   71.699852   99.885292   85.393120
H    0.982959   19.605530   69.825485
H   33.814941   64.442314   93.254654
H   88.676392   93.362595   26.679327
H   37.130753   12.807858   41.165329
H   71.490532   49.000488   52.080952
H   47.147278   70.050644   30.987162
H   64.345688   88.569641   11.538033
H   23.820866   46.322624   75.866005
H   63.260201   80.926353   84.168442
H   62.579674   56.878666   82.005981
H   69.354485   52.617134   48.987015
H   38.937397   77.429916   31.331385
H   16.865211   72.476761   33.383411
H   90.451065   35.043133   22.436018
H   47.787918    1.877944   77.568993
H   65.565346   49.161057   17.261749
H   82.345528   73.057678   76.155151
H   72.085999    5.987041   43.367744
H   88.976273   45.272484   49.504974
H   49.254539   19.394051    0.807645
H   38.913368   31.622780   27.272415
H   18.972034   16.770494   14.850556
H   41.316475   42.865089   41.157841
H   94.389214   28.132137   41.276211
H   75.015121   44.559563   80.723785
H    4.579821   54.533413   70.528702
H   20.158783   13.965499   82.018845
H   80.272858   87.436440   81.917313
H   25.746115   73.598389   23.110744
H   71.824593   40.994377   45.386387
H   10.581387   65.446426    0.214074
H   56.361599   95.036507   90.008888
H   53.861561   16.582346   42.012886
H   56.329350   12.721743   72.774315
H   14.256497   92.980980   77.299728
H   61.208660   56.380955   65.882286
H   43.416142    7.063948   71.172684
H   86.972618    7.476089   63.511890
H   43.812256   31.773132    5.065048
H   37.694698   79.731056    6.127390
H    6.696100    6.133000   14.696070
H   95.673294   10.762144   35.299469
H    3.010986   40.956032   16.150000
H    0.663164   17.854500   70.179520
H   23.090576    9.921266   82.202148
H   47.891331   57.226742   15.712628
H   65.928726    0.259311   83.097710
H   39.142700   12.270155   19.158180
H   88.457443   92.316750   18.029396
H   58.677689   50.955032   81.420601
H   99.162041   26.345482   52.389370
H   97.894630   58.556404   45.756573
H   52.458298    6.584074   48.366283
H   64.040367   13.846753   46.707539
H   40.833115   28.784821   54.616051
H   64.498352   32.843002   98.187103
H   68.557686   80.821205   41.950504
H   35.113773   95.636230   79.916771
H   97.191193   35.008511   18.567951
H   93.128471   42.812996    3.123459
H   43.363762   31.039831   29.056961
H   65.472801   15.500814   82.617455
H   19.850897   80.589584   20.830389
H   11.097713   40.608177    7.440024
H   42.271973   48.569187   36.467186
H   16.939133   17.239302   75.843117
H   43.836605   46.703411   80.637596
H   67.676376   55.225357   45.962723
H   24.349361   35.363892   90.292633
H   66.015388   56.263653    9.615150
H   70.332550   43.549568   84.507599
H   12.531963   70.912636   58.725349
H   79.625267   80.912399    3.842702
H   83.064240   70.469513   78.238655
H   90.629585    0.410283   14.422098
H   17.449947   39.991623   84.416328
H   92.938728   64.361038   69.024734
H    2.885953   22.158606   65.607048
H   93.333183   78.089218   49.194107
H    9.992233   15.379262   40.362030
H   27.477306   98.886353   54.782829
H   33.013107   29.231218   80.468048
H   28.934063   64.321785   40.340942
H   13.048217   30.575928   29.092323
H   28.490265   44.109356    3.990963
H   43.823471   35.447811   35.492867
