100
TIME:    3.546, STEP:  3546
H   77.520905   96.835144   95.899551
H    2.631172   97.002609    1.680636
H   40.707268   29.016994   81.716774
H   82.071793   86.554375   45.795254
H   63.409851   56.985043   69.558090
H   73.035652   97.366447   29.918013
H   67.122887    0.779514   67.754753
H   41.177689   95.376541   82.612144
H   66.460487   45.360001   76.879585
H   77.938255   67.298668   46.548599
H   70.414749    8.923542   98.181129
H   20.499054    1.433499   40.520470
H   17.701679   47.169525   72.684837
H   79.503960   94.146095   27.092175
H   23.633888   53.284164   80.319984
H   58.947632    1.582847   38.692726
H   38.958992   16.511723   96.194717
H   76.916954   22.258858   76.610046
H    0.498899   27.112192   50.178242
H   96.985283   30.513094   57.760796
H   53.852051    3.201161   60.995811
H    2.338821   48.791351   17.303589
H   38.399818   65.782829   30.896046
H   89.579659   79.210388   43.717098
H    2.759503    4.943001   62.727821
H   30.398298   21.951025   56.803604
H   56.304050   95.073441   70.330605
H   33.340931   21.954987   83.983757
H   88.274826   70.812881   89.551491
H   36.961929    3.076015   65.285400
H   55.614162   40.032169   28.830711
H   89.653908   54.537216   70.993080
H   20.132589    9.040359   17.248640
H   27.928802   48.752968   22.363407
H   92.626511   90.869591   40.654488
H   80.868919   63.043270    8.446706
H   19.906883   74.673325   87.876335
H   17.430069   94.054970   72.672035
H   95.393738    4.157221    0.678894
H   29.200199   80.218918   17.025770
H   92.908249   77.854660   25.887922
H   12.926903   71.006104   69.395370
H   41.784611   84.764252   57.604000
H   52.922729   72.201080   27.443350
H   49.065960   91.984985   59.551693
H   32.339367   30.551319   97.566444
H   69.437790   17.681332   59.503014
H   56.428791   31.892649   87.984337
H   68.680649   38.769531    3.021610
H    0.247664   84.711403   35.652294
H   43.274082   27.300381   90.805283
H   77.461899   34.696716   41.274113
H   82.431404   42.569641   96.922798
H   94.577904   49.351921   88.292267
H   58.455582   69.347595   30.507006
H   98.003067    8.804403   71.912598
H   21.053278   87.228203   93.241463
H   62.013664   42.011932   22.218842
H   69.941383   88.595444   39.254826
H   25.019691    0.344360   62.753914
H   83.384834   13.667409   37.921513
H   73.060143   94.936417   34.909370
H   14.797814   65.310478   90.310600
H   86.537102   61.083862   30.866581
H   73.070671   77.631355   25.792917
H   83.508858   65.990669   55.850998
H    3.065883   70.955017   38.263836
H   35.419411   20.336885   35.721905
H   33.634468   94.993393   37.833920
H    2.228842   26.495703   94.266266
H    9.430277   54.130135   19.611618
H   81.582932   33.840424   16.242844
H   75.785507   42.905895   70.830559
H   52.152401   24.981113   92.463280
H   33.138805   33.693768   70.208778
H    9.485322   34.837799   57.327694
H   88.908791   19.202568   53.762150
H   98.577850   18.855875   10.271257
H   31.556318   43.103008   57.247391
H   25.622932   15.830505   15.430021
H   80.268478   65.966660   91.925308
H    7.384206   67.385635   90.262817
H   42.154354   66.446472   67.638885
H   94.109512   15.597734   39.544281
H   79.668289   27.079967    4.007553
H   69.683044   39.304878   88.028107
H    3.984060   45.529839   92.630188
H   13.035669   21.392822   58.865532
H   29.274021   96.737083   99.189095
H   52.825085   63.385704   50.977173
H   69.139526   64.903740    8.346841
H   40.662117   62.183952    1.093324
H   12.759845   33.914795   93.222069
H   89.961922   28.323368   65.905846
H   95.281013   32.100613   97.571098
H   86.806625   55.703377   84.293297
H   81.137726   71.178307   33.256187
H   19.882803   46.429749   99.297096
H   39.790062   52.135708   48.022797
H   59.465290   87.637520   56.143036
