100
TIME:    1.529, STEP:  1529
H   13.922508   81.804276   97.746170
H   58.738335   87.645119   74.449120
H    6.036892   83.906731    5.386861
H   81.733246   69.655174   56.354763
H   81.475937   95.313622   24.246712
H    4.306295   99.551613   30.167440
H   72.834373   64.584435   10.022652
H   99.709908   20.880238   67.807198
H   16.042259   39.286346    3.841266
H   33.055351   38.337532   67.565971
H   58.031174   27.764927   92.468552
H   97.480972    0.331769   84.093437
H   46.002235   69.200722   73.158195
H   79.374641    0.363133   73.598305
H   99.097710   33.450245   77.275589
H   40.047012   77.999138    6.120796
H    1.138177   83.112198   12.567365
H   33.818413   20.345596   46.538864
H   69.075752   42.497612   43.915401
H   51.322884   73.342880   20.434031
H   73.543610    3.999924   15.744976
H    8.958360   46.118042   89.063332
H   65.329674   82.186958   88.603027
H   76.980843   55.019688   93.516983
H   74.898308   64.909889   47.843483
H   39.648113   82.048981   45.859116
H   30.231052   78.919327   30.307585
H    3.529857   27.808254   17.312593
H   44.417633   87.815033   84.896111
H   59.621822   52.997269    4.940068
H   76.248268   59.157913   88.420624
H   62.299168   10.269303   57.716881
H   78.058914   56.613197   35.541351
H   42.705544   33.598915    7.337313
H   42.766136   43.339546   17.834435
H    5.495035    4.594264   15.383298
H   26.450340   48.541359   28.944403
H    0.796188   30.969090   30.338749
H   81.982742   47.868355   95.579056
H   19.179068   69.044151   58.333630
H   30.750938    8.646953   78.367111
H   94.203369   80.480644   74.635132
H   24.411009   72.668900   11.915002
H   81.722588   38.396301   30.231859
H   24.026459   71.562607   86.950516
H   58.361301   92.080116   89.379768
H   52.224903    8.220767   40.688423
H   56.321072   11.125883   63.183788
H    9.726125    5.818311   83.482132
H   57.957813   54.021755   76.723961
H   43.427967   22.028605   69.538391
H   79.439735   21.858934   73.686661
H   40.596886   30.874390   14.067257
H   41.283756   82.259361   99.287979
H   19.035851   92.545105   13.380772
H   95.479355   10.925041   40.576035
H   93.184219   45.428459    1.407974
H   12.204624   32.492790   74.171829
H   10.866493    3.371967   94.101028
H   58.119259   45.312489   20.121178
H   56.151348    7.467286   95.183434
H   44.643951   13.713169   26.171921
H   77.944519    2.886558   28.662941
H   48.033501   50.111870   85.628136
H   93.010384   38.725391   37.953907
H    7.416434   66.261940   36.591763
H   64.894058    1.225474   40.883068
H   74.747231    4.981771   39.297642
H   33.107475   39.922134   64.337807
H   61.358475   25.046938   98.513489
H   73.479485   91.367241   43.809483
H   47.893658    0.780397   68.568962
H    7.297668   42.675022   22.542522
H   96.538963   52.622299   12.335579
H   35.891190   30.819284   17.306492
H   61.808537    5.566715   93.047600
H    5.777864   94.023422   18.088633
H    3.815531   50.743866   98.879822
H   34.841972   49.023289   34.738289
H   24.540604   25.680979   89.196541
H   40.803349   45.099865   71.373451
H   56.046314   54.213089   58.923538
H   14.542468   32.776459   75.529602
H   55.352505   43.000103   23.772713
H   77.879623   53.245346   99.533157
H   16.099735   65.219810   47.961723
H   69.273170   92.182159   96.451614
H   80.569046   82.879257   79.849602
H   87.413033    9.040252   15.690094
H   31.153999   46.369148   78.874870
H   86.595497   55.992039   65.751419
H   91.417473   10.501558   62.653564
H   83.387886   73.444138   37.202988
H   95.010963    5.977318   29.911663
H   30.157570   12.770569   51.220970
H   20.210754   35.351860   88.473953
H   41.237228   55.426601   49.255051
H   12.479112   29.256195   31.572735
H   35.873863   43.441212   16.974293
H   34.197464   39.429478   50.421455
