200
TIME:    0.527, STEP:   527
H   18.290117   61.522503   20.247099
H   30.522327   37.068035    1.548283
H   12.122391   81.700096   59.484489
H   27.516867   80.328285   36.994717
H   12.162991   91.003220   49.532131
H   80.281982   45.025364   57.054539
H    7.517341   55.100494   55.206470
H    9.320136    1.279620   14.885078
H   99.083908   83.203590   40.718056
H    0.758297   70.878716   84.752037
H   22.197134    0.725129    2.031136
H   31.964584   49.683285   26.417168
H   18.218235   96.532799   49.528954
H   90.838531   54.417805   56.095547
H    5.765484   74.153931   42.272434
H   20.934883   14.141235   48.131809
H   97.708710   21.160128    1.497751
H   29.747118   96.963936   38.410851
H   74.574425   19.311544   46.708736
H   90.969330   75.763329   26.345181
H   61.529373   91.085045   12.691777
H   83.639671   59.784447   59.514839
H   86.410889   60.454735   42.249802
H   14.687209   90.675797   90.686142
H   15.721041   24.246714   35.169422
H   18.423517   75.073250   97.477615
H    4.453640   64.555504   60.621246
H    1.096806   81.968796    1.486450
H   23.156479   47.806221   36.657818
H   80.080208   28.452705   88.698090
H   12.986791   63.439701   16.545702
H   26.707054   70.232895    0.669115
H   20.188721   15.161134   76.684761
H   86.927910   63.891037   43.306755
H   34.215626   77.941940   32.036022
H   23.686329   43.378223   82.767502
H   94.501877   68.234520   88.109535
H   18.718912   52.179276    2.263359
H   42.448326   36.123558   50.811138
H   87.330376   38.508274   52.485443
H   80.589706   91.816841   11.050474
H   27.624498   37.088673   31.321074
H   71.534317   81.188934   60.985241
H   36.641891   77.173119   29.012802
H   38.583111   85.051506   54.720894
H   37.021008    6.369374   45.809204
H   85.382553   12.151357    2.471638
H   83.128693   65.546227   37.330093
H   98.179634   17.860912   61.373253
H   51.846909   19.096674   93.570564
H   71.380951   66.863510   16.494667
H   10.167090   40.637798   69.712120
H   59.916920   86.212082   11.680587
H   18.135160   88.240234   85.953247
H   65.050797   70.002144   81.491486
H    1.626518   65.279724   88.046143
H    4.611423   17.831520   46.575962
H   70.544235   65.251213    0.123436
H   22.125175   80.021622   14.067905
H   36.465408   94.377602   61.688744
H   49.490017    9.776958   33.851292
H   95.094322   17.104765   51.266113
H   79.354088   31.151878   75.202347
H   31.079775   65.561798   10.075382
H   75.961937   80.357620   29.665504
H   27.481464   27.711300   38.022079
H   75.454689   17.108191   91.764656
H   95.734230   92.102440   92.953659
H   26.731117    9.731641   58.347198
H   43.584885   46.632210   50.967266
H   58.339260   81.556038   80.958206
H   24.074427   16.277988   42.755836
H   86.602676   30.624813   89.885445
H   17.215420    2.656234   68.927834
H   82.639694    5.517441   54.117989
H   60.568024    8.944252   61.002048
H   94.214523   40.634525   68.085991
H   15.925107   11.196053   38.153587
H   13.712532   42.479904   28.581944
H   63.951546   89.066322   80.650848
H   55.549046   25.251457   96.872849
H   39.256195   63.429153   78.984825
H    9.879988   16.814449   81.882462
H   15.315014   71.244377    3.205534
H   28.688091    2.358747   49.648792
H   32.752941   75.732651   21.808399
H   48.718235    3.382154    2.429297
H   72.944786    7.862542   22.267202
H   74.470200   72.755791   78.204407
H   22.006634   98.911270   51.708050
H   29.211992   37.370369   79.477928
H   82.056290   91.053543    4.630113
H   60.893463   13.625269   87.555916
H   47.158279   84.122650   76.985168
H   32.397202   53.043976   79.893005
H   57.386726   34.126026   15.567511
H   83.198769    4.352407   10.689555
H   99.004959   32.898342   51.310909
H   30.514687   66.903038   53.898335
H   72.194611    2.590919   27.320475
H   22.671110   88.361633   82.454231
H    1.244500   80.998619   64.281494
H   29.128637   26.681316   34.513367
H   35.666634   68.469376    1.559505
H   24.958290   23.701084   34.392395
H   98.785126   12.721439   30.454002
H   79.253754   33.660416   54.923553
H   63.060188   45.293720    7.643780
H   80.090240   36.466900   13.010502
H   13.586196   24.058828    6.941916
H   50.970570   93.572784    0.997776
H   97.518013   70.562439   93.780289
H   52.109333   83.605095   87.692719
H   62.251976   13.209982   67.553009
H   54.272789   93.919601   16.709639
H    2.325865   97.401512   91.881706
H   20.774990   12.483957   87.525864
H   39.315006   41.122917   28.241661
H   29.761803   68.488808   69.355194
H   78.356583   52.402950   60.048985
H   43.549995   23.666607   78.115341
H    5.905632   20.681210   56.630306
H   39.155647    9.718116   32.543037
H   99.848808   56.991055    5.297035
H   68.328621    1.846081   83.321060
H   58.236980   70.204697   19.989964
H   88.252800   50.529984   59.970825
H   69.150986   89.820915   37.426502
H   95.999603   42.094940   78.349823
H   81.655952   22.789034   71.391068
H   60.194321   74.938202   14.379230
H   70.683945   88.897903   16.095150
H   91.500587   96.558044   99.510048
H   86.847771   20.361412   53.239567
H   18.604168   96.180710   43.228706
H   54.714058    1.258512   79.453415
H   69.367867   87.295860   69.626038
H   93.666359   55.259865   78.663635
H   53.814926   48.347237   71.482208
H   43.603409   95.325325   87.482834
H   64.826210   54.628712   24.180832
H   44.026031   49.731052   52.937325
H   45.779469   62.043488   89.703865
H   44.562126   16.138819   82.880318
H   53.792286   60.248726   58.453327
H   56.455860   66.920380   16.100727
H   51.519127   95.520943   45.226921
H   34.815735   62.735458   67.178368
H   72.857758   52.809566   95.091362
H   18.610632   91.808167   79.256767
H   66.104103   66.184082   49.177551
H   45.868687   99.168472   39.158398
H   89.508446   21.107182   93.389732
H   17.496653    7.730403   68.860291
H   24.993172   61.458466   65.945526
H   72.021973   44.240536   62.890667
H   62.315441   69.490654   84.154099
H   50.126453   32.055092   16.447958
H   99.246353    0.652931   91.961288
H   60.462006   45.233643   89.254944
H   56.775105   72.749573   75.785004
H   30.129009   21.568991   33.057644
H   77.573280   22.056833   37.112717
H   21.809444   28.610855   58.919765
H   56.206192   31.826769   12.644523
H   16.858442   55.307419   60.732948
H   69.957825   92.924934   55.264198
H   23.882927   43.990459   59.880543
H   97.972702   27.236877   36.179241
H   39.570263    8.293890   87.171448
H   73.882141    9.046914   35.951988
H   36.248268   54.787014   58.339443
H   43.218197   65.122208   82.348648
H   67.691864   67.673141   80.897957
H   58.098602   92.877563   85.736694
H    9.768310   49.211113   23.562092
H   32.469398   61.886616   98.913742
H    4.273614    9.474564   68.550034
H   68.261909   14.707689   65.778130
H   72.648148   57.533730   90.433640
H   76.178017   95.474136   35.046383
H   25.016518   30.456387   80.093575
H   52.421059   89.865593   11.752602
H   57.730953   25.751472   87.748711
H   89.234398   75.886299   77.214432
H    5.268669   38.645508   85.390602
H   41.345490   99.608505    5.624378
H   76.632912   79.381416   35.568958
H   98.306953   62.453247   69.823486
H   54.832569   56.712101   69.329056
H   61.530678   21.528988   77.251961
H   45.300152   92.728683   20.968790
H   10.475407   24.351858   64.380661
H   30.089508   74.985115   39.097206
H   75.045624   41.436111   20.877478
H   76.028824   11.087687   25.634333
H   11.369000   93.385170   13.153729
H   20.568619   91.702179   38.872723
H    8.086100   12.414944   65.181419
H    5.014367   25.269281   93.761467
