100
TIME:    9.204, STEP:  9204
H   94.893463   77.971016   90.719498
H   46.283768    3.614194   58.447803
H   37.979191   36.076042   15.299416
H   83.021469   53.446037   35.659821
H   12.723452   10.498301   16.147831
H   85.290527   91.236717   90.248840
H   70.587090   82.836266   10.217968
H   96.470047   84.864853   63.114067
H   27.375984    1.364803   20.727816
H   23.365103   48.540806   68.094551
H   44.121368   36.583832   53.172173
H    4.548431   85.039680   37.777809
H   56.841141    4.883125   10.439640
H   99.354996   76.706581   57.669598
H   92.397774   47.886177    8.281334
H   31.451088    6.713443   69.028381
H   83.976021   90.744225   11.264784
H   97.888016   46.972221   80.469803
H   88.622314   64.474609   48.263142
H   44.542667   10.356733   42.983696
H   18.098305   39.930313    7.431956
H   44.776791   56.302429   35.472641
H   62.855537   19.772425   69.013107
H   63.874592   46.934784   23.504774
H    0.397421   56.238129    4.511451
H    4.208260   54.769577   24.744272
H   68.408684   59.879444   82.588547
H   55.934143   86.051315   71.009544
H   11.303144   84.151054   22.093719
H   53.914970   63.040451   15.080257
H   78.291847   47.395901   81.187912
H   46.903431   98.217010   47.203682
H   18.673965   95.074402   26.965963
H   66.992996   30.230927   84.001991
H   51.893654   62.798042   85.031616
H   72.725540    6.328942   90.490852
H   62.581444   67.464607   33.704426
H   83.573296   90.515114   71.941048
H   56.569935   80.878258   52.376266
H   96.279770   50.536140   62.187340
H    6.223690   71.992249   59.186733
H   24.551025   77.696655   49.840611
H   90.496796   18.700649   66.286125
H   91.640541   67.138222   80.652046
H   58.276199   68.760735   43.723858
H   59.319199   38.463024   20.553595
H   13.650167   25.383593   13.819016
H   56.749386   90.168213   38.068516
H   34.071930   70.174171   77.323730
H   18.975752   70.827629   39.989193
H   42.869602   81.056480   50.453552
H   52.443676    9.675774   69.850716
H   99.781960   75.376648   68.319962
H   63.543793   57.036156   37.962593
H    7.958390   65.200409   78.624542
H    5.059330    2.852009   79.300903
H   79.745132   23.969185   31.364538
H   40.706726    7.682653   76.480858
H   16.178665   27.670938    4.893911
H   51.648838   35.238415    1.826929
H   40.297367   50.541637   96.781456
H   72.249962   42.272537   78.904045
H   98.919739   79.218407    2.324554
H   75.062866   91.901093   77.252182
H   97.644821   25.735142   52.697269
H   35.932503   84.715569   90.396675
H   49.114578   66.565857   11.430943
H   44.582596   43.924446    6.207031
H   15.627220   88.445602   82.974121
H   16.953445   10.938461   82.322083
H   29.757141   69.159554   51.747200
H   15.340453   45.991600   30.695629
H    6.873849   63.041157   25.758572
H   27.593792   66.897499   56.282997
H    5.837437   41.867634   99.155228
H   43.247017   97.462517   76.616226
H    2.702063   29.170757   53.979050
H   64.392693   48.900322   22.752060
H    2.879946   26.483669   20.373560
H   48.152245    7.633460   27.988304
H   90.999092   24.501963   30.093956
H   31.957104    4.163963   16.997629
H    0.046562   61.041660    6.484822
H   83.369255   99.765114   22.774433
H    4.173050   73.153915   55.529053
H   39.462002   47.132935   80.936829
H   81.869194   34.146385   62.425423
H    4.054349   68.562416    0.146873
H   46.694584   81.708519   52.913948
H   52.582188   30.598801   53.236000
H    0.688280   70.418289   27.833763
H   59.301693   87.708466    8.901734
H   75.447693    3.679347   30.764032
H   36.796181   71.568954   47.409130
H   97.457687   25.291241   27.583200
H   54.134262   32.275330   92.050171
H   32.031700   95.877617    7.857426
H   20.511461   41.874081   94.107628
H   70.255730   76.547295   74.106590
H   10.908100   42.444324   11.088938
