200
TIME:    0.775, STEP:   775
H   25.910509   60.699444   24.487745
H   32.732605   40.688549   11.616404
H    6.924559   92.555016   71.699821
H   35.876373   83.226967   30.509579
H    9.529911   97.288742   45.966488
H   72.214111   38.294254   49.714176
H   11.110419   54.924530   60.006702
H   14.877677   11.987918    6.082341
H    9.154980   79.485634   34.668098
H   92.028198   67.404663   74.969933
H   30.841146    6.022714    9.868172
H   32.990097   56.302761   38.233990
H   24.305088    4.763869   39.364647
H   79.117035   55.464130   68.045982
H   93.792191   76.063049   41.662235
H   13.706229    3.923005   42.781925
H    9.374593   32.775162   89.456551
H   23.858461    8.886518   33.995659
H   82.825829   10.333255   50.359524
H   91.758331   72.357567   16.731472
H   64.505630    3.464886    1.330000
H   78.118553   69.263817   49.957893
H   78.984436   58.651573   36.299179
H   19.940123   92.936844   89.908493
H   26.500282   34.220867   26.320118
H   18.218225   86.079536   89.286758
H    9.256386   69.531700   70.592560
H    6.788710   92.199326    2.139008
H   33.601761   40.268135   35.205639
H   68.873360   35.096527   80.119354
H   12.663007   73.800789   16.848909
H   22.197258   76.045395    6.775212
H   14.196472   20.497337   79.713997
H   78.720024   64.161606   47.641533
H   22.313995   67.694382   30.149143
H   15.585334   37.723713   85.611313
H    1.619857   62.881798   89.971352
H    6.451851   58.594406   91.113167
H   33.269798   27.243288   56.323742
H   84.952019   37.488438   42.797943
H   80.663498   80.231575   19.282154
H   39.968491   31.888252   23.966993
H   67.068985   75.491852   70.194046
H   36.089401   89.218163   37.882133
H   47.056835   92.617973   63.670479
H   33.531048   99.915192   48.506378
H   90.056015    0.001143    7.908677
H   77.091034   65.542442   28.414566
H    7.770733    8.449847   61.552055
H   42.972061   20.215845   83.078926
H   65.481415   63.724533    6.666415
H    0.687007   44.906353   75.044029
H   66.606773   79.122421   14.919608
H   14.444066   93.473755   89.625793
H   54.553482   64.486702   73.470917
H   98.447563   59.169415   96.166992
H    3.903671   18.769997   43.915684
H   73.253708   71.016411   95.646767
H   16.892128   84.812393   20.065907
H   30.729538   92.985023   57.104210
H   48.686825    4.938412   26.605181
H   99.552086   17.692259   53.167664
H   86.186424   36.288979   66.835526
H   37.088982   65.915619   15.612583
H   79.948570   84.054764   39.806995
H   17.752811   37.346031   42.479843
H   66.191017   11.876848   96.888435
H   94.345436   92.666283   97.863632
H   35.552322   13.083005   55.208221
H   42.157303   50.954689   50.954021
H   58.230465   85.845406   87.591873
H   17.104441    9.759493   41.019844
H   94.473770   34.912289   81.581062
H   25.295116   97.205078   76.148048
H   85.659470    9.531983   42.457039
H   66.836517    0.188738   59.381474
H   93.166306   49.866978   64.578056
H    6.739704   15.711998   29.673241
H   15.599281   53.527275   23.084583
H   60.213722   87.683205   68.889618
H   66.074738   21.060005   93.190842
H   50.161255   58.968552   71.318077
H    8.912420   19.534801   74.626297
H    7.227760   79.353874   11.288240
H   19.856762    4.981265   42.620625
H   39.739483   67.055527   16.645832
H   59.833317    3.898931    2.997870
H   70.882408   98.632339   31.621222
H   82.061264   73.359367   79.097473
H   20.764477   10.027934   48.979656
H   18.816378   39.511269   78.374840
H   80.328812   93.229446   10.041416
H   72.675255   10.828287   80.492744
H   36.037521   75.212799   83.794800
H   38.680832   49.689301   90.221924
H   47.116463   39.670795    3.907203
H   86.562904   95.774117   21.370285
H   92.187759   36.751583   53.658993
H   24.895180   64.418724   54.777210
H   76.506683    6.620479   27.381021
H   33.736050   95.218567   94.132210
H   10.465839   84.750633   62.913513
H   34.269447   17.617733   37.978729
H   47.583015   68.927261   11.408319
H   24.629539   20.441959   42.432831
H    8.603683    0.579422   18.842720
H   91.001740   36.739792   53.769379
H   61.598549   54.815662   98.054176
H   86.392792   33.336437   25.002567
H   21.552839   20.601034    8.155691
H   54.233479   91.417694    1.172262
H    7.475573   76.798767   96.605179
H   47.801991   86.482964   82.298370
H   61.411888    7.863412   61.158169
H   45.996788    4.246510    8.013849
H   92.205032   90.147240    3.069719
H   10.578392   15.976046   90.416977
H   38.056767   53.329735   23.284386
H   39.179790   77.799782   57.098770
H   84.901321   57.352657   69.300903
H   46.138374   25.314617   69.988815
H   95.205406   14.806271   63.925259
H   45.134651   99.258438   39.900429
H   96.195183   48.067013   94.436607
H   60.907845   95.706085   75.118851
H   67.322792   76.989731   15.201517
H   82.088371   51.687943   50.393066
H   63.726364   91.765984   39.521046
H   99.051544   33.117920   72.698151
H   93.676399   21.613573   75.616104
H   70.205368   66.083221   23.856709
H   61.164841   91.357620   21.943600
H   90.690773    8.623562    1.355284
H   74.687309   26.719780   56.291508
H   30.855450   91.696457   31.832649
H   48.108772    0.940228   75.799789
H   69.778450   87.927818   81.971924
H   95.781715   47.516487   74.745117
H   60.297226   51.815437   71.423553
H   43.737747   83.431648   80.591843
H   77.103981   47.335651   32.191940
H   32.609161   57.266300   58.718605
H   37.807148   66.607613   81.338936
H   33.198235    7.161565   86.989937
H   65.449455   52.023811   66.562820
H   65.542786   71.192719    4.223095
H   57.384605   94.434883   43.451195
H   28.043945   53.503952   65.755516
H   79.487640   42.455105   92.625969
H   26.516256   94.515747   69.976067
H   57.363369   70.395874   47.305328
H   56.308292   92.305862   31.386639
H    1.029396   11.834049   84.684227
H   24.052271   13.422986   62.731613
H   34.827309   68.008514   70.431671
H   79.384094   44.855465   70.521324
H   64.911392   76.928459   87.090622
H   53.652363   28.076027   22.258093
H   87.895706   99.718414   82.763840
H   57.681580   35.114746   98.772156
H   59.211170   62.674194   69.191071
H   18.484615   20.283789   30.909176
H   88.248451   11.244013   37.009598
H   30.912762   35.896347   48.309872
H   53.831619   40.241840   15.081298
H   21.131254   47.416458   59.377266
H   65.687378   88.913704   57.893257
H   24.099571   55.273937   70.135666
H    1.342790   26.430374   35.593639
H   50.887798    6.422377   84.378723
H   69.144348   11.996209   35.931175
H   27.680645   45.575375   59.101009
H   48.009914   54.465111   75.370621
H   64.638031   61.741802   86.651802
H   46.571991   91.011963   74.075745
H   17.423851   50.552349   23.804638
H   29.921700   69.634468    9.287243
H    6.471631    9.711075   71.721176
H   61.919312    8.942255   62.877922
H   60.851223   60.194008   93.932114
H   71.650246    4.361546   29.280462
H   30.018730   30.759121   89.147224
H   41.001350   89.602592   16.666359
H   63.131924   26.210304   96.872368
H   92.441490   65.129768   76.192703
H   10.460389   40.738159   86.631813
H   49.980988   95.360764   11.119480
H   64.718422   89.886299   44.247028
H   91.124580   63.559174   72.657837
H   59.342365   55.363041   72.462357
H   73.377251   13.323940   75.480965
H   43.267101   99.468307   17.809946
H   15.983990   30.251867   70.062607
H   25.757095   84.882637   44.095161
H   66.535004   30.358942   20.066244
H   76.634293   11.696231   22.236612
H   13.017484    0.147512   21.524336
H   13.361089   86.773285   31.878613
H    4.778963   13.108868   54.089989
H    2.427726   16.866983   90.315971
