100
TIME:    6.653, STEP:  6653
H   67.407059   11.908794   93.055008
H   16.736217   65.381889   97.597878
H   94.126938   52.547203   45.247021
H   82.593292   58.546967   75.490112
H   35.580734    6.024649   85.315628
H   24.848789   94.000404   37.615017
H    4.287239   10.579304   10.726419
H   96.973610   64.169830   97.336876
H   90.084435   46.634613   81.304619
H   93.042366   11.911674   68.209602
H   81.409180   33.940281   98.899208
H    1.912547   57.171101   19.361160
H   19.525040   59.270039   63.945976
H   25.663933   84.569466   63.537571
H   61.413338   75.754082   30.959873
H   34.021866   29.833412   80.783691
H   89.112343   22.015476   79.037178
H   43.338634   71.104111   68.896523
H   48.887119   57.456665   13.868663
H   13.275253   64.525185   69.299797
H   69.478271   93.889679   76.667763
H    0.209930   52.915939   52.713867
H   96.915062   40.513802   42.001007
H    0.897941   16.417452   12.963459
H   91.635445   58.544792   85.673805
H   16.218195   29.980034   64.797874
H   88.383354   65.921768   31.973516
H   71.180191   66.979256   86.685623
H   55.834053   52.704052   42.680664
H   56.098454   26.178307   12.283165
H   77.893791   18.643261   83.014824
H   85.831818   68.693649   83.362541
H   38.985455   81.717445   97.151733
H   59.207024   64.014969   91.471634
H   15.381498   55.944588   29.825060
H   50.971386    6.519986   98.509438
H   17.908611   60.888306   32.695591
H   89.012016   37.200336   91.925743
H   64.249298   36.457817   99.587585
H   36.555340   89.351639   61.479778
H   80.566437   84.463585   99.087502
H   39.535446   67.692886   19.607872
H   68.542999    3.397285   82.027031
H   54.526035   24.313070   31.231035
H   79.556831   69.396805   25.425676
H   92.247124   89.812637   10.189768
H   93.711227   86.650345   89.326881
H   56.594723   63.893723   80.227875
H   59.501122   81.448341   79.084030
H   65.420166   31.996347   18.353849
H   43.044765   27.339582   23.559315
H   28.461060   46.390976   37.308296
H   46.876354   60.585083   16.472368
H   22.624588   98.650421   25.394325
H   11.072964   41.642166   56.936886
H    1.882063    5.535413   66.142975
H   18.023829   97.576683   88.743034
H   30.659159   48.593956   42.190170
H   14.985526   19.876499    0.732582
H   19.989983   39.160175   74.383446
H   79.376793   69.174820   95.676315
H   62.789955   66.016891   94.325912
H   25.732222   53.294472   77.254272
H   99.888718   78.004807   46.512280
H   96.391037   29.479809   15.133895
H   92.643280   11.532726   39.561127
H   53.786026   78.372681   88.268509
H   20.797722   98.028847   84.254471
H   88.486397   71.744186   42.968662
H   65.170372   82.768974   87.723816
H   10.769224   42.731354   82.342384
H   25.397142   30.725021   43.723602
H   73.203033   89.222229   91.164368
H   83.750191   28.351391    7.855300
H   82.938469   38.126514    5.740225
H   82.939018   33.967396   48.266403
H   71.017181   49.967289    8.733541
H   44.550365   15.696493   81.860252
H   80.548164   33.976765   91.908028
H   73.255753   46.599556   47.759239
H   41.061707   98.110001   77.623459
H   40.532608   87.616486   30.414818
H   38.692604   18.379675   63.542473
H    7.865869   81.470604   55.767559
H   28.383696   32.736229    2.818720
H   98.169296   53.431381    3.787631
H   11.493624   19.625496   40.784142
H   63.027550   72.694885   26.596581
H   93.750839   23.743677   73.777840
H   78.124557   35.553852   62.043343
H   96.290794   32.675041   73.960983
H   70.553528   95.848907   60.288940
H   11.923541   27.142200   33.491280
H   90.253761   16.802576   75.400589
H   41.566551   53.795166   68.965149
H   43.432129   33.011200   23.813049
H   34.518120   49.481644   54.569321
H   25.435495   15.650067   45.322006
H   91.779625   65.531471   87.778481
H   52.453541    7.908588   56.836658
