100
TIME:    9.861, STEP:  9861
H   50.462555   17.721214   90.117996
H   28.139008   39.217709   99.871880
H   49.272381   83.344032    7.586412
H   83.131744   26.377951   99.646744
H    6.836256   63.159622   98.334526
H   75.105103   90.524940   55.314293
H   36.155186   27.200037   61.596218
H   44.831146   41.703350    2.788757
H   11.225670   38.197083   79.373238
H    5.417803   57.974354   93.818764
H   83.008759   63.019821   89.885384
H   79.474937   17.971100   91.012688
H   14.946531   65.114326   45.148575
H   66.823792   74.681526    7.665776
H    0.377749   89.199707   76.683617
H    5.032713   49.249863   14.491479
H   31.144142   34.199135   71.074081
H   11.938910   15.002459   57.694336
H   98.857864   92.033401   82.886261
H   26.843487   96.403778   87.715355
H   79.110504   74.524910   89.597763
H    7.764023   57.174606   79.523056
H   54.083641   14.431225   50.216187
H    2.828403   54.794403   74.711456
H   76.898788    4.133064    9.361057
H    1.108982   35.401230   62.918789
H   11.753544   32.566265   95.621078
H    0.499696   16.717854   92.723747
H   25.589214   43.758823   91.037827
H   79.107857   46.779861   67.309822
H    4.146984    6.311204   29.208160
H   88.386978   80.061691   86.381935
H   64.954384   47.004410   86.153709
H   94.752289   70.020897   56.322899
H   35.542839   13.053871   25.004110
H   29.836798   57.791157   88.425697
H   25.597538   43.404549   85.473648
H   56.416904   78.495110   18.304916
H   28.835705   66.562523   88.708580
H   34.397694   89.028824   13.877213
H   61.321869   94.538528   74.665367
H   69.182320   80.277451   83.373039
H   96.150909   22.642990   13.743504
H   49.694126   78.165749   44.888920
H    1.265388   42.806278   99.933487
H   50.843040   50.994305   23.222757
H   18.787418   61.117329   20.127695
H   56.789486   96.935104   78.719986
H   53.274864   15.762783   51.115852
H   32.765175   80.832603   94.051582
H   46.189701   17.880348   52.209106
H   84.373383   48.711876   26.722754
H   13.409595   79.186157   30.160500
H   48.330818   46.314392   66.954964
H   55.647530   22.775457   84.208481
H    5.877623    2.160909   56.935074
H   21.396988    5.011236   93.850517
H   91.785843   45.637535   59.558617
H   67.997246   55.434853   54.456821
H    8.295397   85.737320   83.140297
H   81.743683   19.989389   45.561802
H   48.931755   36.157272   49.177345
H   43.546162   34.422165   57.288803
H   20.176926   95.480026   59.416374
H   23.722225   73.261787   13.880359
H   95.573364   52.054039   29.244135
H   96.401497   89.282562   43.151745
H   99.198875   81.498238   37.615433
H   48.373947   41.237762   41.768566
H   30.296753   43.936024   80.928604
H    8.892132   24.453533   43.867531
H   61.236702   24.177147   78.852448
H   64.036819   30.544928    8.911518
H   13.132694   25.317959   17.246500
H   37.484367   42.835049   48.969196
H   58.780792   39.570454   32.409454
H   62.372017   72.306320   65.632439
H   95.259743    5.943062   59.037636
H   34.384018   24.553852   27.706865
H   15.933064   71.843727   71.387306
H    3.860841   31.298929   69.361977
H   81.256920    8.429048   62.031456
H   41.603485   72.029091   69.055588
H   28.570499   55.986526   62.766396
H   72.183197   32.055214   91.841019
H   24.339252   71.266670   26.561131
H   25.748812   86.376808   93.753624
H   14.619705   15.990424   93.339767
H   60.328617   45.127205   47.540535
H   94.493713    3.566322   76.722336
H   27.576071    5.896200   41.708397
H    7.913042   37.120514   21.417978
H   17.562458   23.393553   81.570854
H   96.924477   11.173135   96.881432
H   86.099335   66.442268   42.680153
H    8.399810    6.332621   58.115463
H   79.882683   33.580139   70.072845
H   19.243296   74.381821   80.914696
H   38.957603   79.384377   19.075138
H   51.715118   25.586292   47.798992
